/*---------------------------------------------------------------------------*\
| =========                 |                                                 |
| \\      /  F ield         | OpenFOAM: The Open Source CFD Toolbox           |
|  \\    /   O peration     | Version:  4.1                                   |
|   \\  /    A nd           | Web:      www.OpenFOAM.org                      |
|    \\/     M anipulation  |                                                 |
\*---------------------------------------------------------------------------*/
Build  : 4.1
Exec   : simpleFoam -case .
Date   : Jun 18 2017
Time   : 13:03:55
Host   : "BatComputer"
PID    : 9402
Case   : /home/dhanvi/OpenFOAM/tutorials/incompressible/simpleFoam/Project
nProcs : 1
sigFpe : Enabling floating point exception trapping (FOAM_SIGFPE).
fileModificationChecking : Monitoring run-time modified files using timeStampMaster
allowSystemOperations : Allowing user-supplied system call operations

// * * * * * * * * * * * * * * * * * * * * * * * * * * * * * * * * * * * * * //
Create time

Create mesh for time = 0


SIMPLE: convergence criteria
    field p	 tolerance 1e-05
    field U	 tolerance 1e-05
    field nuTilda	 tolerance 1e-05

Reading field p

Reading field U

Reading/calculating face flux field phi

Selecting incompressible transport model Newtonian
Selecting turbulence model type RAS
Selecting RAS turbulence model SpalartAllmaras
Selecting patchDistMethod meshWave
SpalartAllmarasCoeffs
{
    sigmaNut        0.66666;
    kappa           0.41;
    Cb1             0.1355;
    Cb2             0.622;
    Cw2             0.3;
    Cw3             2;
    Cv1             7.1;
    Cs              0.3;
}

No MRF models present

No finite volume options present


Starting time loop

--> FOAM Warning :
    From function void Foam::timeControl::read(const Foam::dictionary&)
    in file db/functionObjects/timeControl/timeControl.C at line 89
    Reading "/home/dhanvi/OpenFOAM/tutorials/incompressible/simpleFoam/Project/system/controlDict.functions.forces" from line 3 to line 17
    Using deprecated 'outputControl'
    Please use 'writeControl' with 'writeInterval'
forces forces:
    Not including porosity effects
--> FOAM Warning :
    From function void Foam::timeControl::read(const Foam::dictionary&)
    in file db/functionObjects/timeControl/timeControl.C at line 89
    Reading "/home/dhanvi/OpenFOAM/tutorials/incompressible/simpleFoam/Project/system/controlDict.functions.forceCoeffs" from line 23 to line 42
    Using deprecated 'outputControl'
    Please use 'writeControl' with 'writeInterval'
forces forceCoeffs:
    Not including porosity effects
forceCoeffs forceCoeffs:
    Not including porosity effects
Time = 1

smoothSolver:  Solving for Ux, Initial residual = 1, Final residual = 0.0370937, No Iterations 2
smoothSolver:  Solving for Uy, Initial residual = 1, Final residual = 0.0417296, No Iterations 2
GAMG:  Solving for p, Initial residual = 1, Final residual = 0.0699013, No Iterations 6
time step continuity errors : sum local = 0.0633188, global = -1.87699e-15, cumulative = -1.87699e-15
smoothSolver:  Solving for nuTilda, Initial residual = 1, Final residual = 0.0404259, No Iterations 2
ExecutionTime = 0.05 s  ClockTime = 0 s

forces forces write:
    sum of forces:
        pressure : (3356.69 67025.4 -6.45682e-17)
        viscous  : (3.81956 4.6884 -1.97651e-20)
        porous   : (0 0 0)
    sum of moments:
        pressure : (33512.7 -1678.34 17578.9)
        viscous  : (2.3442 -1.90978 1.05158)
        porous   : (0 0 0)

forceCoeffs forceCoeffs write:
    Cm    = 21.975
    Cd    = -4.20063
    Cl    = 83.7876
    Cl(f) = 63.8688
    Cl(r) = 19.9188

Time = 2

smoothSolver:  Solving for Ux, Initial residual = 0.543578, Final residual = 0.0375257, No Iterations 4
smoothSolver:  Solving for Uy, Initial residual = 0.498775, Final residual = 0.0365605, No Iterations 4
GAMG:  Solving for p, Initial residual = 0.828868, Final residual = 0.0487157, No Iterations 3
time step continuity errors : sum local = 0.191303, global = -2.65744e-15, cumulative = -4.53443e-15
smoothSolver:  Solving for nuTilda, Initial residual = 0.158469, Final residual = 0.0145932, No Iterations 2
ExecutionTime = 0.06 s  ClockTime = 0 s

forces forces write:
    sum of forces:
        pressure : (2062.6 45988.9 -4.36665e-17)
        viscous  : (4.46565 -0.695205 -1.52802e-20)
        porous   : (0 0 0)
    sum of moments:
        pressure : (22994.5 -1031.3 11807.5)
        viscous  : (-0.347602 -2.23283 -0.514424)
        porous   : (0 0 0)

forceCoeffs forceCoeffs write:
    Cm    = 14.7587
    Cd    = -2.58383
    Cl    = 57.4853
    Cl(f) = 43.5013
    Cl(r) = 13.984

Time = 3

smoothSolver:  Solving for Ux, Initial residual = 0.224615, Final residual = 0.0158, No Iterations 4
smoothSolver:  Solving for Uy, Initial residual = 0.12767, Final residual = 0.00928255, No Iterations 4
GAMG:  Solving for p, Initial residual = 0.697494, Final residual = 0.0462298, No Iterations 4
time step continuity errors : sum local = 0.268616, global = -8.48622e-16, cumulative = -5.38305e-15
smoothSolver:  Solving for nuTilda, Initial residual = 0.060149, Final residual = 0.00168376, No Iterations 4
ExecutionTime = 0.07 s  ClockTime = 0 s

forces forces write:
    sum of forces:
        pressure : (-679.164 -7132.75 6.16999e-18)
        viscous  : (5.18396 -9.62112 6.24461e-20)
        porous   : (0 0 0)
    sum of moments:
        pressure : (-3566.37 339.582 -2499.44)
        viscous  : (-4.81056 -2.59198 -3.08264)
        porous   : (0 0 0)

forceCoeffs forceCoeffs write:
    Cm    = -3.12815
    Cd    = 0.842474
    Cl    = -8.92796
    Cl(f) = -7.59213
    Cl(r) = -1.33583

Time = 4

smoothSolver:  Solving for Ux, Initial residual = 0.0875484, Final residual = 0.00450597, No Iterations 4
smoothSolver:  Solving for Uy, Initial residual = 0.0323154, Final residual = 0.00184241, No Iterations 4
GAMG:  Solving for p, Initial residual = 0.684823, Final residual = 0.058065, No Iterations 3
time step continuity errors : sum local = 0.312535, global = 4.60806e-16, cumulative = -4.92225e-15
smoothSolver:  Solving for nuTilda, Initial residual = 0.0334945, Final residual = 0.00124639, No Iterations 4
ExecutionTime = 0.08 s  ClockTime = 0 s

forces forces write:
    sum of forces:
        pressure : (-1956.58 -32045.7 3.00845e-17)
        viscous  : (4.65954 -7.99984 1.00513e-19)
        porous   : (0 0 0)
    sum of moments:
        pressure : (-16022.9 978.29 -9211.95)
        viscous  : (-3.99992 -2.32977 -2.64279)
        porous   : (0 0 0)

forceCoeffs forceCoeffs write:
    Cm    = -11.5182
    Cd    = 2.4399
    Cl    = -40.0672
    Cl(f) = -31.5518
    Cl(r) = -8.51534

Time = 5

smoothSolver:  Solving for Ux, Initial residual = 0.16308, Final residual = 0.0100438, No Iterations 4
smoothSolver:  Solving for Uy, Initial residual = 0.0864488, Final residual = 0.00623332, No Iterations 4
GAMG:  Solving for p, Initial residual = 0.701137, Final residual = 0.0666419, No Iterations 2
time step continuity errors : sum local = 0.346238, global = 5.16525e-16, cumulative = -4.40572e-15
smoothSolver:  Solving for nuTilda, Initial residual = 0.0234573, Final residual = 0.000970442, No Iterations 4
ExecutionTime = 0.09 s  ClockTime = 0 s

forces forces write:
    sum of forces:
        pressure : (-1525.53 -23925.5 2.33393e-17)
        viscous  : (3.67672 -0.913888 7.48106e-20)
        porous   : (0 0 0)
    sum of moments:
        pressure : (-11962.8 762.765 -6913.64)
        viscous  : (-0.456944 -1.83836 -0.568961)
        porous   : (0 0 0)

forceCoeffs forceCoeffs write:
    Cm    = -8.64276
    Cd    = 1.90232
    Cl    = -29.9081
    Cl(f) = -23.5968
    Cl(r) = -6.31127

Time = 6

smoothSolver:  Solving for Ux, Initial residual = 0.210696, Final residual = 0.0142717, No Iterations 4
smoothSolver:  Solving for Uy, Initial residual = 0.121941, Final residual = 0.00881943, No Iterations 4
GAMG:  Solving for p, Initial residual = 0.73928, Final residual = 0.0685292, No Iterations 3
time step continuity errors : sum local = 0.316646, global = -1.28531e-15, cumulative = -5.69103e-15
smoothSolver:  Solving for nuTilda, Initial residual = 0.0187401, Final residual = 0.0008098, No Iterations 4
ExecutionTime = 0.1 s  ClockTime = 0 s

forces forces write:
    sum of forces:
        pressure : (-114.419 3582.32 -4.38236e-18)
        viscous  : (4.16276 3.29331 8.51949e-21)
        porous   : (0 0 0)
    sum of moments:
        pressure : (1791.16 57.2095 874.047)
        viscous  : (1.64666 -2.08138 0.618477)
        porous   : (0 0 0)

forceCoeffs forceCoeffs write:
    Cm    = 1.09333
    Cd    = 0.13782
    Cl    = 4.48201
    Cl(f) = 3.33434
    Cl(r) = 1.14768

Time = 7

smoothSolver:  Solving for Ux, Initial residual = 0.183564, Final residual = 0.0105684, No Iterations 4
smoothSolver:  Solving for Uy, Initial residual = 0.0940988, Final residual = 0.00515357, No Iterations 4
GAMG:  Solving for p, Initial residual = 0.698363, Final residual = 0.0601893, No Iterations 3
time step continuity errors : sum local = 0.229851, global = -2.66008e-15, cumulative = -8.35111e-15
smoothSolver:  Solving for nuTilda, Initial residual = 0.0157987, Final residual = 0.000683087, No Iterations 4
ExecutionTime = 0.11 s  ClockTime = 0 s

forces forces write:
    sum of forces:
        pressure : (784.208 20683.6 -2.01554e-17)
        viscous  : (3.90373 3.67603 -3.61312e-20)
        porous   : (0 0 0)
    sum of moments:
        pressure : (10341.8 -392.104 5720.63)
        viscous  : (1.83801 -1.95187 0.779956)
        porous   : (0 0 0)

forceCoeffs forceCoeffs write:
    Cm    = 7.15177
    Cd    = -0.985139
    Cl    = 25.859
    Cl(f) = 20.0813
    Cl(r) = 5.77775

Time = 8

smoothSolver:  Solving for Ux, Initial residual = 0.169788, Final residual = 0.00961668, No Iterations 4
smoothSolver:  Solving for Uy, Initial residual = 0.123636, Final residual = 0.00861531, No Iterations 4
GAMG:  Solving for p, Initial residual = 0.725014, Final residual = 0.0384867, No Iterations 3
time step continuity errors : sum local = 0.153993, global = 3.34387e-15, cumulative = -5.00724e-15
smoothSolver:  Solving for nuTilda, Initial residual = 0.0133128, Final residual = 0.000575609, No Iterations 4
ExecutionTime = 0.12 s  ClockTime = 0 s

forces forces write:
    sum of forces:
        pressure : (561.006 16979.7 -1.61536e-17)
        viscous  : (3.06147 1.12916 -3.04953e-20)
        porous   : (0 0 0)
    sum of moments:
        pressure : (8489.86 -280.503 4594.81)
        viscous  : (0.564579 -1.53073 0.0378443)
        porous   : (0 0 0)

forceCoeffs forceCoeffs write:
    Cm    = 5.74356
    Cd    = -0.705084
    Cl    = 21.2261
    Cl(f) = 16.3566
    Cl(r) = 4.86947

Time = 9

smoothSolver:  Solving for Ux, Initial residual = 0.123015, Final residual = 0.00768958, No Iterations 4
smoothSolver:  Solving for Uy, Initial residual = 0.0607759, Final residual = 0.00432653, No Iterations 4
GAMG:  Solving for p, Initial residual = 0.674436, Final residual = 0.0452788, No Iterations 3
time step continuity errors : sum local = 0.189784, global = 3.19964e-17, cumulative = -4.97524e-15
smoothSolver:  Solving for nuTilda, Initial residual = 0.0118137, Final residual = 0.000504887, No Iterations 4
ExecutionTime = 0.13 s  ClockTime = 0 s

forces forces write:
    sum of forces:
        pressure : (-293.087 2495.54 -2.16493e-18)
        viscous  : (2.87571 -0.873001 2.9551e-21)
        porous   : (0 0 0)
    sum of moments:
        pressure : (1247.77 146.544 288.585)
        viscous  : (-0.436501 -1.43785 -0.538398)
        porous   : (0 0 0)

forceCoeffs forceCoeffs write:
    Cm    = 0.360059
    Cd    = 0.362765
    Cl    = 3.11834
    Cl(f) = 1.91923
    Cl(r) = 1.19911

Time = 10

smoothSolver:  Solving for Ux, Initial residual = 0.0795484, Final residual = 0.00506786, No Iterations 4
smoothSolver:  Solving for Uy, Initial residual = 0.025787, Final residual = 0.00148914, No Iterations 4
GAMG:  Solving for p, Initial residual = 0.55507, Final residual = 0.0389253, No Iterations 3
time step continuity errors : sum local = 0.162068, global = -1.8678e-16, cumulative = -5.16202e-15
smoothSolver:  Solving for nuTilda, Initial residual = 0.0108452, Final residual = 0.000453987, No Iterations 4
ExecutionTime = 0.15 s  ClockTime = 0 s

forces forces write:
    sum of forces:
        pressure : (-918.728 -7757.85 7.6292e-18)
        viscous  : (2.77089 -1.27098 4.06857e-20)
        porous   : (0 0 0)
    sum of moments:
        pressure : (-3878.93 459.364 -2778.75)
        viscous  : (-0.635492 -1.38544 -0.67331)
        porous   : (0 0 0)

forceCoeffs forceCoeffs write:
    Cm    = -3.47428
    Cd    = 1.14495
    Cl    = -9.6989
    Cl(f) = -8.32373
    Cl(r) = -1.37518

Time = 11

smoothSolver:  Solving for Ux, Initial residual = 0.0616234, Final residual = 0.00366159, No Iterations 4
smoothSolver:  Solving for Uy, Initial residual = 0.0413898, Final residual = 0.00288939, No Iterations 4
GAMG:  Solving for p, Initial residual = 0.546833, Final residual = 0.0304361, No Iterations 3
time step continuity errors : sum local = 0.125983, global = -3.07674e-16, cumulative = -5.46969e-15
smoothSolver:  Solving for nuTilda, Initial residual = 0.0099821, Final residual = 0.000413142, No Iterations 4
ExecutionTime = 0.15 s  ClockTime = 0 s

forces forces write:
    sum of forces:
        pressure : (-908.648 -6734.63 6.74479e-18)
        viscous  : (2.59002 -0.21141 3.74302e-20)
        porous   : (0 0 0)
    sum of moments:
        pressure : (-3367.31 454.324 -2466.57)
        viscous  : (-0.105705 -1.29501 -0.348608)
        porous   : (0 0 0)

forceCoeffs forceCoeffs write:
    Cm    = -3.08364
    Cd    = 1.13257
    Cl    = -8.41855
    Cl(f) = -7.29292
    Cl(r) = -1.12563

Time = 12

smoothSolver:  Solving for Ux, Initial residual = 0.058476, Final residual = 0.00327591, No Iterations 4
smoothSolver:  Solving for Uy, Initial residual = 0.046813, Final residual = 0.00329564, No Iterations 4
GAMG:  Solving for p, Initial residual = 0.546745, Final residual = 0.0312617, No Iterations 3
time step continuity errors : sum local = 0.122565, global = -3.75774e-16, cumulative = -5.84547e-15
smoothSolver:  Solving for nuTilda, Initial residual = 0.00934571, Final residual = 0.000380438, No Iterations 4
ExecutionTime = 0.17 s  ClockTime = 0 s

forces forces write:
    sum of forces:
        pressure : (-507.941 335.812 -5.68479e-20)
        viscous  : (2.57812 0.820421 1.83111e-20)
        porous   : (0 0 0)
    sum of moments:
        pressure : (167.906 253.971 -263.309)
        viscous  : (0.410211 -1.28906 -0.0256271)
        porous   : (0 0 0)

forceCoeffs forceCoeffs write:
    Cm    = -0.329168
    Cd    = 0.631704
    Cl    = 0.42079
    Cl(f) = -0.118773
    Cl(r) = 0.539563

Time = 13

smoothSolver:  Solving for Ux, Initial residual = 0.0630002, Final residual = 0.00363554, No Iterations 4
smoothSolver:  Solving for Uy, Initial residual = 0.0346683, Final residual = 0.00206242, No Iterations 4
GAMG:  Solving for p, Initial residual = 0.504358, Final residual = 0.030891, No Iterations 3
time step continuity errors : sum local = 0.112172, global = 1.14937e-15, cumulative = -4.69609e-15
smoothSolver:  Solving for nuTilda, Initial residual = 0.00882487, Final residual = 0.000354746, No Iterations 4
ExecutionTime = 0.18 s  ClockTime = 0 s

forces forces write:
    sum of forces:
        pressure : (-128.335 6446.47 -5.90008e-18)
        viscous  : (2.5313 1.0939 4.34969e-21)
        porous   : (0 0 0)
    sum of moments:
        pressure : (3223.23 64.1674 1665.74)
        viscous  : (0.546951 -1.26565 0.0846713)
        porous   : (0 0 0)

forceCoeffs forceCoeffs write:
    Cm    = 2.08228
    Cd    = 0.157254
    Cl    = 8.05945
    Cl(f) = 6.112
    Cl(r) = 1.94745

Time = 14

smoothSolver:  Solving for Ux, Initial residual = 0.054627, Final residual = 0.00305613, No Iterations 4
smoothSolver:  Solving for Uy, Initial residual = 0.0356933, Final residual = 0.00232649, No Iterations 4
GAMG:  Solving for p, Initial residual = 0.493277, Final residual = 0.0260852, No Iterations 3
time step continuity errors : sum local = 0.09447, global = 1.38609e-15, cumulative = -3.31e-15
smoothSolver:  Solving for nuTilda, Initial residual = 0.00810168, Final residual = 0.00032162, No Iterations 4
ExecutionTime = 0.19 s  ClockTime = 0 s

forces forces write:
    sum of forces:
        pressure : (-96.5056 6704.14 -5.54735e-18)
        viscous  : (2.34335 0.632843 -4.96119e-21)
        porous   : (0 0 0)
    sum of moments:
        pressure : (3352.07 48.2528 1745.8)
        viscous  : (0.316421 -1.17167 -0.0387668)
        porous   : (0 0 0)

forceCoeffs forceCoeffs write:
    Cm    = 2.1822
    Cd    = 0.117703
    Cl    = 8.38097
    Cl(f) = 6.37269
    Cl(r) = 2.00829

Time = 15

smoothSolver:  Solving for Ux, Initial residual = 0.0466742, Final residual = 0.00261932, No Iterations 4
smoothSolver:  Solving for Uy, Initial residual = 0.0253985, Final residual = 0.00171673, No Iterations 4
GAMG:  Solving for p, Initial residual = 0.463646, Final residual = 0.0233431, No Iterations 3
time step continuity errors : sum local = 0.0885164, global = -1.59241e-15, cumulative = -4.90241e-15
smoothSolver:  Solving for nuTilda, Initial residual = 0.00735966, Final residual = 0.000287317, No Iterations 4
ExecutionTime = 0.2 s  ClockTime = 0 s

forces forces write:
    sum of forces:
        pressure : (-301.31 3595.59 -1.63082e-18)
        viscous  : (2.20004 0.0891931 9.91974e-22)
        porous   : (0 0 0)
    sum of moments:
        pressure : (1797.8 150.655 721.749)
        viscous  : (0.0445965 -1.10002 -0.202445)
        porous   : (0 0 0)

forceCoeffs forceCoeffs write:
    Cm    = 0.901933
    Cd    = 0.373888
    Cl    = 4.4946
    Cl(f) = 3.14924
    Cl(r) = 1.34537

Time = 16

smoothSolver:  Solving for Ux, Initial residual = 0.0414749, Final residual = 0.0024477, No Iterations 4
smoothSolver:  Solving for Uy, Initial residual = 0.0171755, Final residual = 0.00106083, No Iterations 4
GAMG:  Solving for p, Initial residual = 0.394532, Final residual = 0.0223456, No Iterations 3
time step continuity errors : sum local = 0.0836882, global = 1.96761e-15, cumulative = -2.9348e-15
smoothSolver:  Solving for nuTilda, Initial residual = 0.00683829, Final residual = 0.000262921, No Iterations 4
ExecutionTime = 0.22 s  ClockTime = 0 s

forces forces write:
    sum of forces:
        pressure : (-593.812 433.823 5.63933e-19)
        viscous  : (2.09087 -0.0993407 6.32543e-21)
        porous   : (0 0 0)
    sum of moments:
        pressure : (216.912 296.906 -337.296)
        viscous  : (-0.0496703 -1.04544 -0.26523)
        porous   : (0 0 0)

forceCoeffs forceCoeffs write:
    Cm    = -0.421952
    Cd    = 0.739651
    Cl    = 0.542155
    Cl(f) = -0.150874
    Cl(r) = 0.693029

Time = 17

smoothSolver:  Solving for Ux, Initial residual = 0.0329688, Final residual = 0.00204004, No Iterations 4
smoothSolver:  Solving for Uy, Initial residual = 0.0180772, Final residual = 0.00114761, No Iterations 4
GAMG:  Solving for p, Initial residual = 0.350497, Final residual = 0.0189148, No Iterations 3
time step continuity errors : sum local = 0.0743388, global = 5.55846e-16, cumulative = -2.37896e-15
smoothSolver:  Solving for nuTilda, Initial residual = 0.0063978, Final residual = 0.000244749, No Iterations 4
ExecutionTime = 0.23 s  ClockTime = 0 s

forces forces write:
    sum of forces:
        pressure : (-690.749 -490.873 2.05925e-18)
        viscous  : (1.9711 0.0873735 1.54709e-20)
        porous   : (0 0 0)
    sum of moments:
        pressure : (-245.437 345.375 -639.965)
        viscous  : (0.0436868 -0.985552 -0.204703)
        porous   : (0 0 0)

forceCoeffs forceCoeffs write:
    Cm    = -0.800212
    Cd    = 0.860973
    Cl    = -0.613483
    Cl(f) = -1.10695
    Cl(r) = 0.493471

Time = 18

smoothSolver:  Solving for Ux, Initial residual = 0.0260405, Final residual = 0.00156792, No Iterations 4
smoothSolver:  Solving for Uy, Initial residual = 0.0191381, Final residual = 0.00120204, No Iterations 4
GAMG:  Solving for p, Initial residual = 0.342022, Final residual = 0.0176536, No Iterations 3
time step continuity errors : sum local = 0.0674393, global = -3.13674e-16, cumulative = -2.69263e-15
smoothSolver:  Solving for nuTilda, Initial residual = 0.00595794, Final residual = 0.000224461, No Iterations 4
ExecutionTime = 0.24 s  ClockTime = 0 s

forces forces write:
    sum of forces:
        pressure : (-618.59 616.596 1.06962e-18)
        viscous  : (1.89252 0.367225 1.3353e-20)
        porous   : (0 0 0)
    sum of moments:
        pressure : (308.298 309.295 -239.369)
        viscous  : (0.183612 -0.946259 -0.105673)
        porous   : (0 0 0)

forceCoeffs forceCoeffs write:
    Cm    = -0.299344
    Cd    = 0.770871
    Cl    = 0.771203
    Cl(f) = 0.0862581
    Cl(r) = 0.684945

Time = 19

smoothSolver:  Solving for Ux, Initial residual = 0.0241554, Final residual = 0.00138511, No Iterations 4
smoothSolver:  Solving for Uy, Initial residual = 0.0165826, Final residual = 0.000969423, No Iterations 4
GAMG:  Solving for p, Initial residual = 0.324655, Final residual = 0.0144994, No Iterations 3
time step continuity errors : sum local = 0.0530588, global = -5.24754e-16, cumulative = -3.21738e-15
smoothSolver:  Solving for nuTilda, Initial residual = 0.00571043, Final residual = 0.00021093, No Iterations 4
ExecutionTime = 0.26 s  ClockTime = 0 s

forces forces write:
    sum of forces:
        pressure : (-478.122 2211.99 -7.44885e-19)
        viscous  : (1.82229 0.479834 -4.02367e-22)
        porous   : (0 0 0)
    sum of moments:
        pressure : (1105.99 239.061 358.02)
        viscous  : (0.239917 -0.911147 -0.0481252)
        porous   : (0 0 0)

forceCoeffs forceCoeffs write:
    Cm    = 0.447465
    Cd    = 0.595374
    Cl    = 2.76558
    Cl(f) = 1.83026
    Cl(r) = 0.935327

Time = 20

smoothSolver:  Solving for Ux, Initial residual = 0.0234345, Final residual = 0.00142281, No Iterations 4
smoothSolver:  Solving for Uy, Initial residual = 0.0143738, Final residual = 0.000853674, No Iterations 4
GAMG:  Solving for p, Initial residual = 0.291437, Final residual = 0.0141205, No Iterations 3
time step continuity errors : sum local = 0.0497332, global = 1.90517e-15, cumulative = -1.31221e-15
smoothSolver:  Solving for nuTilda, Initial residual = 0.00551112, Final residual = 0.00020383, No Iterations 4
ExecutionTime = 0.27 s  ClockTime = 0 s

forces forces write:
    sum of forces:
        pressure : (-394.73 2926.78 -1.58458e-18)
        viscous  : (1.73015 0.381561 -7.12437e-21)
        porous   : (0 0 0)
    sum of moments:
        pressure : (1463.39 197.365 634.323)
        viscous  : (0.19078 -0.865074 -0.0591369)
        porous   : (0 0 0)

forceCoeffs forceCoeffs write:
    Cm    = 0.79283
    Cd    = 0.49125
    Cl    = 3.65896
    Cl(f) = 2.62231
    Cl(r) = 1.03665

Time = 21

smoothSolver:  Solving for Ux, Initial residual = 0.0213184, Final residual = 0.00123662, No Iterations 4
smoothSolver:  Solving for Uy, Initial residual = 0.0121272, Final residual = 0.000723156, No Iterations 4
GAMG:  Solving for p, Initial residual = 0.264119, Final residual = 0.0131711, No Iterations 3
time step continuity errors : sum local = 0.0455993, global = -1.51233e-15, cumulative = -2.82454e-15
smoothSolver:  Solving for nuTilda, Initial residual = 0.00554389, Final residual = 0.000205195, No Iterations 4
ExecutionTime = 0.28 s  ClockTime = 0 s

forces forces write:
    sum of forces:
        pressure : (-405.261 2568.45 -8.93233e-19)
        viscous  : (1.63753 0.212593 -3.84287e-21)
        porous   : (0 0 0)
    sum of moments:
        pressure : (1284.22 202.631 505.454)
        viscous  : (0.106297 -0.818765 -0.101751)
        porous   : (0 0 0)

forceCoeffs forceCoeffs write:
    Cm    = 0.63169
    Cd    = 0.50453
    Cl    = 3.21082
    Cl(f) = 2.2371
    Cl(r) = 0.973721

Time = 22

smoothSolver:  Solving for Ux, Initial residual = 0.0187662, Final residual = 0.00102081, No Iterations 4
smoothSolver:  Solving for Uy, Initial residual = 0.00964389, Final residual = 0.000579435, No Iterations 4
GAMG:  Solving for p, Initial residual = 0.255891, Final residual = 0.0113071, No Iterations 3
time step continuity errors : sum local = 0.0396948, global = 1.10106e-16, cumulative = -2.71443e-15
smoothSolver:  Solving for nuTilda, Initial residual = 0.00572923, Final residual = 0.000213241, No Iterations 4
ExecutionTime = 0.29 s  ClockTime = 0 s

forces forces write:
    sum of forces:
        pressure : (-457.424 1893.35 4.21059e-19)
        viscous  : (1.55362 0.112664 -1.71086e-21)
        porous   : (0 0 0)
    sum of moments:
        pressure : (946.675 228.712 244.719)
        viscous  : (0.0563321 -0.776808 -0.124385)
        porous   : (0 0 0)

forceCoeffs forceCoeffs write:
    Cm    = 0.305743
    Cd    = 0.569838
    Cl    = 2.36683
    Cl(f) = 1.48916
    Cl(r) = 0.877671

Time = 23

smoothSolver:  Solving for Ux, Initial residual = 0.0171599, Final residual = 0.000939475, No Iterations 4
smoothSolver:  Solving for Uy, Initial residual = 0.00891321, Final residual = 0.00056678, No Iterations 4
GAMG:  Solving for p, Initial residual = 0.239307, Final residual = 0.0104797, No Iterations 3
time step continuity errors : sum local = 0.0377667, global = -1.00898e-15, cumulative = -3.72341e-15
smoothSolver:  Solving for nuTilda, Initial residual = 0.00595114, Final residual = 0.000225306, No Iterations 4
ExecutionTime = 0.3 s  ClockTime = 0 s

forces forces write:
    sum of forces:
        pressure : (-498.955 1445.75 1.49262e-18)
        viscous  : (1.47904 0.126538 2.2956e-20)
        porous   : (0 0 0)
    sum of moments:
        pressure : (722.875 249.478 74.7585)
        viscous  : (0.0632692 -0.739522 -0.110295)
        porous   : (0 0 0)

forceCoeffs forceCoeffs write:
    Cm    = 0.0933102
    Cd    = 0.621845
    Cl    = 1.80735
    Cl(f) = 0.996983
    Cl(r) = 0.810363

Time = 24

smoothSolver:  Solving for Ux, Initial residual = 0.0160051, Final residual = 0.000853052, No Iterations 4
smoothSolver:  Solving for Uy, Initial residual = 0.00827171, Final residual = 0.000501246, No Iterations 4
GAMG:  Solving for p, Initial residual = 0.220658, Final residual = 0.0212689, No Iterations 2
time step continuity errors : sum local = 0.0750925, global = 1.38736e-15, cumulative = -2.33605e-15
smoothSolver:  Solving for nuTilda, Initial residual = 0.00617358, Final residual = 0.000243793, No Iterations 4
ExecutionTime = 0.31 s  ClockTime = 0 s

forces forces write:
    sum of forces:
        pressure : (-497.126 1488.46 1.70268e-18)
        viscous  : (1.41387 0.190653 1.74077e-20)
        porous   : (0 0 0)
    sum of moments:
        pressure : (744.231 248.563 101.928)
        viscous  : (0.0953267 -0.706937 -0.0761043)
        porous   : (0 0 0)

forceCoeffs forceCoeffs write:
    Cm    = 0.127315
    Cd    = 0.619641
    Cl    = 1.86082
    Cl(f) = 1.05772
    Cl(r) = 0.803092

Time = 25

smoothSolver:  Solving for Ux, Initial residual = 0.0148819, Final residual = 0.000747564, No Iterations 4
smoothSolver:  Solving for Uy, Initial residual = 0.00758362, Final residual = 0.000385075, No Iterations 4
GAMG:  Solving for p, Initial residual = 0.217951, Final residual = 0.0195864, No Iterations 2
time step continuity errors : sum local = 0.0694165, global = -4.75318e-16, cumulative = -2.81136e-15
smoothSolver:  Solving for nuTilda, Initial residual = 0.00658647, Final residual = 0.000263782, No Iterations 4
ExecutionTime = 0.32 s  ClockTime = 0 s

forces forces write:
    sum of forces:
        pressure : (-470.016 1661.66 1.53489e-18)
        viscous  : (1.35733 0.228104 2.07003e-20)
        porous   : (0 0 0)
    sum of moments:
        pressure : (830.829 235.008 195.726)
        viscous  : (0.114052 -0.678663 -0.0484038)
        porous   : (0 0 0)

forceCoeffs forceCoeffs write:
    Cm    = 0.244597
    Cd    = 0.585823
    Cl    = 2.07736
    Cl(f) = 1.28328
    Cl(r) = 0.794081

Time = 26

smoothSolver:  Solving for Ux, Initial residual = 0.013773, Final residual = 0.000726528, No Iterations 4
smoothSolver:  Solving for Uy, Initial residual = 0.00698531, Final residual = 0.000331635, No Iterations 4
GAMG:  Solving for p, Initial residual = 0.208989, Final residual = 0.0191431, No Iterations 2
time step continuity errors : sum local = 0.0679422, global = -9.98666e-17, cumulative = -2.91123e-15
smoothSolver:  Solving for nuTilda, Initial residual = 0.00705183, Final residual = 0.000283926, No Iterations 4
ExecutionTime = 0.34 s  ClockTime = 0 s

forces forces write:
    sum of forces:
        pressure : (-434.448 1769.36 1.30013e-18)
        viscous  : (1.29342 0.202457 6.0852e-21)
        porous   : (0 0 0)
    sum of moments:
        pressure : (884.679 217.224 271.889)
        viscous  : (0.101229 -0.646711 -0.0383347)
        porous   : (0 0 0)

forceCoeffs forceCoeffs write:
    Cm    = 0.339814
    Cd    = 0.541443
    Cl    = 2.21195
    Cl(f) = 1.44579
    Cl(r) = 0.766161

Time = 27

smoothSolver:  Solving for Ux, Initial residual = 0.0122564, Final residual = 0.000734626, No Iterations 4
smoothSolver:  Solving for Uy, Initial residual = 0.00676507, Final residual = 0.000331356, No Iterations 4
GAMG:  Solving for p, Initial residual = 0.185857, Final residual = 0.0179518, No Iterations 2
time step continuity errors : sum local = 0.0637352, global = 4.98067e-16, cumulative = -2.41316e-15
smoothSolver:  Solving for nuTilda, Initial residual = 0.00735344, Final residual = 0.000298001, No Iterations 4
ExecutionTime = 0.35 s  ClockTime = 0 s

forces forces write:
    sum of forces:
        pressure : (-402.844 1758.63 1.18956e-18)
        viscous  : (1.23263 0.141689 8.47787e-21)
        porous   : (0 0 0)
    sum of moments:
        pressure : (879.317 201.422 296.475)
        viscous  : (0.0708446 -0.616314 -0.0434088)
        porous   : (0 0 0)

forceCoeffs forceCoeffs write:
    Cm    = 0.370539
    Cd    = 0.502014
    Cl    = 2.19847
    Cl(f) = 1.46977
    Cl(r) = 0.728695

Time = 28

smoothSolver:  Solving for Ux, Initial residual = 0.0110498, Final residual = 0.000705116, No Iterations 4
smoothSolver:  Solving for Uy, Initial residual = 0.00623207, Final residual = 0.000303226, No Iterations 4
GAMG:  Solving for p, Initial residual = 0.16901, Final residual = 0.0159453, No Iterations 2
time step continuity errors : sum local = 0.0563479, global = -7.56177e-16, cumulative = -3.16934e-15
smoothSolver:  Solving for nuTilda, Initial residual = 0.00763985, Final residual = 0.000307912, No Iterations 4
ExecutionTime = 0.36 s  ClockTime = 0 s

forces forces write:
    sum of forces:
        pressure : (-379.825 1701.21 1.24897e-18)
        viscous  : (1.17646 0.0856187 -3.96697e-21)
        porous   : (0 0 0)
    sum of moments:
        pressure : (850.607 189.913 285.502)
        viscous  : (0.0428094 -0.588229 -0.0487787)
        porous   : (0 0 0)

forceCoeffs forceCoeffs write:
    Cm    = 0.356816
    Cd    = 0.473311
    Cl    = 2.12662
    Cl(f) = 1.42013
    Cl(r) = 0.706495

Time = 29

smoothSolver:  Solving for Ux, Initial residual = 0.0103112, Final residual = 0.000633427, No Iterations 4
smoothSolver:  Solving for Uy, Initial residual = 0.00585079, Final residual = 0.00030565, No Iterations 4
GAMG:  Solving for p, Initial residual = 0.159615, Final residual = 0.0145875, No Iterations 2
time step continuity errors : sum local = 0.0513039, global = -1.03666e-15, cumulative = -4.206e-15
smoothSolver:  Solving for nuTilda, Initial residual = 0.00782241, Final residual = 0.000313327, No Iterations 4
ExecutionTime = 0.37 s  ClockTime = 0 s

forces forces write:
    sum of forces:
        pressure : (-363.433 1690.7 1.39063e-18)
        viscous  : (1.13308 0.0609801 -1.30705e-20)
        porous   : (0 0 0)
    sum of moments:
        pressure : (845.35 181.717 275.022)
        viscous  : (0.0304901 -0.566539 -0.0447169)
        porous   : (0 0 0)

forceCoeffs forceCoeffs write:
    Cm    = 0.343722
    Cd    = 0.452875
    Cl    = 2.11345
    Cl(f) = 1.40045
    Cl(r) = 0.713004

Time = 30

smoothSolver:  Solving for Ux, Initial residual = 0.00998371, Final residual = 0.000564046, No Iterations 4
smoothSolver:  Solving for Uy, Initial residual = 0.00619167, Final residual = 0.000347633, No Iterations 4
GAMG:  Solving for p, Initial residual = 0.153461, Final residual = 0.0138403, No Iterations 2
time step continuity errors : sum local = 0.0484562, global = 4.56531e-16, cumulative = -3.74947e-15
smoothSolver:  Solving for nuTilda, Initial residual = 0.00783763, Final residual = 0.00031728, No Iterations 4
ExecutionTime = 0.38 s  ClockTime = 0 s

forces forces write:
    sum of forces:
        pressure : (-349.051 1746.41 1.48427e-18)
        viscous  : (1.09411 0.0598239 -1.03454e-20)
        porous   : (0 0 0)
    sum of moments:
        pressure : (873.203 174.526 283.28)
        viscous  : (0.029912 -0.547053 -0.0311192)
        porous   : (0 0 0)

forceCoeffs forceCoeffs write:
    Cm    = 0.354062
    Cd    = 0.434946
    Cl    = 2.18308
    Cl(f) = 1.4456
    Cl(r) = 0.73748

Time = 31

smoothSolver:  Solving for Ux, Initial residual = 0.00971213, Final residual = 0.000527066, No Iterations 4
smoothSolver:  Solving for Uy, Initial residual = 0.00606069, Final residual = 0.000348221, No Iterations 4
GAMG:  Solving for p, Initial residual = 0.148252, Final residual = 0.0134526, No Iterations 2
time step continuity errors : sum local = 0.046868, global = 2.2582e-15, cumulative = -1.49127e-15
smoothSolver:  Solving for nuTilda, Initial residual = 0.00774726, Final residual = 0.000320632, No Iterations 4
ExecutionTime = 0.39 s  ClockTime = 0 s

forces forces write:
    sum of forces:
        pressure : (-333.495 1820.52 1.44008e-18)
        viscous  : (1.06193 0.0587234 -5.82877e-21)
        porous   : (0 0 0)
    sum of moments:
        pressure : (910.261 166.747 302.363)
        viscous  : (0.0293617 -0.530965 -0.0153942)
        porous   : (0 0 0)

forceCoeffs forceCoeffs write:
    Cm    = 0.377934
    Cd    = 0.415541
    Cl    = 2.27573
    Cl(f) = 1.5158
    Cl(r) = 0.759928

Time = 32

smoothSolver:  Solving for Ux, Initial residual = 0.00929799, Final residual = 0.000517769, No Iterations 4
smoothSolver:  Solving for Uy, Initial residual = 0.00557831, Final residual = 0.000311895, No Iterations 4
GAMG:  Solving for p, Initial residual = 0.141541, Final residual = 0.0124056, No Iterations 2
time step continuity errors : sum local = 0.0430402, global = 9.15606e-16, cumulative = -5.75662e-16
smoothSolver:  Solving for nuTilda, Initial residual = 0.00767433, Final residual = 0.000328462, No Iterations 4
ExecutionTime = 0.4 s  ClockTime = 0 s

forces forces write:
    sum of forces:
        pressure : (-316.174 1840.3 1.27129e-18)
        viscous  : (1.03775 0.0444337 -7.22357e-21)
        porous   : (0 0 0)
    sum of moments:
        pressure : (920.152 158.087 311.801)
        viscous  : (0.0222169 -0.518876 -0.00528835)
        porous   : (0 0 0)

forceCoeffs forceCoeffs write:
    Cm    = 0.389744
    Cd    = 0.39392
    Cl    = 2.30044
    Cl(f) = 1.53996
    Cl(r) = 0.760474

Time = 33

smoothSolver:  Solving for Ux, Initial residual = 0.00856871, Final residual = 0.000512617, No Iterations 4
smoothSolver:  Solving for Uy, Initial residual = 0.00505821, Final residual = 0.000280431, No Iterations 4
GAMG:  Solving for p, Initial residual = 0.132175, Final residual = 0.0109731, No Iterations 2
time step continuity errors : sum local = 0.0378612, global = -2.01985e-15, cumulative = -2.59551e-15
smoothSolver:  Solving for nuTilda, Initial residual = 0.00760146, Final residual = 0.000333423, No Iterations 4
ExecutionTime = 0.42 s  ClockTime = 0 s

forces forces write:
    sum of forces:
        pressure : (-296.586 1776.48 1.05489e-18)
        viscous  : (1.01693 0.0154641 -6.77341e-22)
        porous   : (0 0 0)
    sum of moments:
        pressure : (888.238 148.293 300.456)
        viscous  : (0.00773206 -0.508466 -0.00131663)
        porous   : (0 0 0)

forceCoeffs forceCoeffs write:
    Cm    = 0.375569
    Cd    = 0.369461
    Cl    = 2.22061
    Cl(f) = 1.48588
    Cl(r) = 0.734738

Time = 34

smoothSolver:  Solving for Ux, Initial residual = 0.0078072, Final residual = 0.000501056, No Iterations 4
smoothSolver:  Solving for Uy, Initial residual = 0.00457086, Final residual = 0.000253977, No Iterations 4
GAMG:  Solving for p, Initial residual = 0.126217, Final residual = 0.00973965, No Iterations 2
time step continuity errors : sum local = 0.0339633, global = -2.08663e-15, cumulative = -4.68214e-15
smoothSolver:  Solving for nuTilda, Initial residual = 0.00756748, Final residual = 0.000342006, No Iterations 4
ExecutionTime = 0.43 s  ClockTime = 0 s

forces forces write:
    sum of forces:
        pressure : (-274.723 1662.54 8.41216e-19)
        viscous  : (0.996473 -0.0211261 6.48177e-21)
        porous   : (0 0 0)
    sum of moments:
        pressure : (831.269 137.362 275.352)
        viscous  : (-0.010563 -0.498237 0.0015847)
        porous   : (0 0 0)

forceCoeffs forceCoeffs write:
    Cm    = 0.344192
    Cd    = 0.342158
    Cl    = 2.07815
    Cl(f) = 1.38327
    Cl(r) = 0.694881

Time = 35

smoothSolver:  Solving for Ux, Initial residual = 0.00739999, Final residual = 0.000489, No Iterations 4
smoothSolver:  Solving for Uy, Initial residual = 0.00427245, Final residual = 0.000230444, No Iterations 4
GAMG:  Solving for p, Initial residual = 0.121181, Final residual = 0.00891886, No Iterations 2
time step continuity errors : sum local = 0.0318326, global = 6.2686e-16, cumulative = -4.05528e-15
smoothSolver:  Solving for nuTilda, Initial residual = 0.00770631, Final residual = 0.000353889, No Iterations 4
ExecutionTime = 0.44 s  ClockTime = 0 s

forces forces write:
    sum of forces:
        pressure : (-251.576 1565.33 6.27157e-19)
        viscous  : (0.981932 -0.0450119 4.04919e-21)
        porous   : (0 0 0)
    sum of moments:
        pressure : (782.664 125.788 254.618)
        viscous  : (-0.022506 -0.490966 0.00525558)
        porous   : (0 0 0)

forceCoeffs forceCoeffs write:
    Cm    = 0.318279
    Cd    = 0.313242
    Cl    = 1.9566
    Cl(f) = 1.29658
    Cl(r) = 0.660023

Time = 36

smoothSolver:  Solving for Ux, Initial residual = 0.0073895, Final residual = 0.000476476, No Iterations 4
smoothSolver:  Solving for Uy, Initial residual = 0.00416781, Final residual = 0.000217908, No Iterations 4
GAMG:  Solving for p, Initial residual = 0.11855, Final residual = 0.00801942, No Iterations 2
time step continuity errors : sum local = 0.0292692, global = 1.99187e-15, cumulative = -2.06341e-15
smoothSolver:  Solving for nuTilda, Initial residual = 0.00796098, Final residual = 0.000370742, No Iterations 4
ExecutionTime = 0.45 s  ClockTime = 0 s

forces forces write:
    sum of forces:
        pressure : (-228.885 1531.58 3.89505e-19)
        viscous  : (0.967054 -0.0564585 -1.00482e-21)
        porous   : (0 0 0)
    sum of moments:
        pressure : (765.791 114.443 251.559)
        viscous  : (-0.0282292 -0.483527 0.0116955)
        porous   : (0 0 0)

forceCoeffs forceCoeffs write:
    Cm    = 0.314463
    Cd    = 0.284898
    Cl    = 1.91441
    Cl(f) = 1.27167
    Cl(r) = 0.64274

Time = 37

smoothSolver:  Solving for Ux, Initial residual = 0.00725269, Final residual = 0.000457859, No Iterations 4
smoothSolver:  Solving for Uy, Initial residual = 0.00423658, Final residual = 0.000225176, No Iterations 4
GAMG:  Solving for p, Initial residual = 0.113159, Final residual = 0.00715892, No Iterations 2
time step continuity errors : sum local = 0.0268055, global = -7.07213e-16, cumulative = -2.77062e-15
smoothSolver:  Solving for nuTilda, Initial residual = 0.00831678, Final residual = 0.000392801, No Iterations 4
ExecutionTime = 0.47 s  ClockTime = 0 s

forces forces write:
    sum of forces:
        pressure : (-207.374 1562.34 1.10967e-19)
        viscous  : (0.9586 -0.0653497 -5.40045e-21)
        porous   : (0 0 0)
    sum of moments:
        pressure : (781.171 103.687 266.336)
        viscous  : (-0.0326748 -0.4793 0.0200423)
        porous   : (0 0 0)

forceCoeffs forceCoeffs write:
    Cm    = 0.332946
    Cd    = 0.258019
    Cl    = 1.95285
    Cl(f) = 1.30937
    Cl(r) = 0.643478

Time = 38

smoothSolver:  Solving for Ux, Initial residual = 0.00690498, Final residual = 0.000435966, No Iterations 4
smoothSolver:  Solving for Uy, Initial residual = 0.0042758, Final residual = 0.000238295, No Iterations 4
GAMG:  Solving for p, Initial residual = 0.109455, Final residual = 0.0072223, No Iterations 2
time step continuity errors : sum local = 0.0275634, global = -4.50527e-16, cumulative = -3.22115e-15
smoothSolver:  Solving for nuTilda, Initial residual = 0.00864714, Final residual = 0.000410957, No Iterations 4
ExecutionTime = 0.48 s  ClockTime = 0 s

forces forces write:
    sum of forces:
        pressure : (-186.73 1623.8 -1.97781e-19)
        viscous  : (0.959815 -0.073758 -8.34076e-21)
        porous   : (0 0 0)
    sum of moments:
        pressure : (811.901 93.3649 288.288)
        viscous  : (-0.036879 -0.479907 0.0262849)
        porous   : (0 0 0)

forceCoeffs forceCoeffs write:
    Cm    = 0.360392
    Cd    = 0.232212
    Cl    = 2.02966
    Cl(f) = 1.37522
    Cl(r) = 0.654438

Time = 39

smoothSolver:  Solving for Ux, Initial residual = 0.00652576, Final residual = 0.000415357, No Iterations 4
smoothSolver:  Solving for Uy, Initial residual = 0.0043073, Final residual = 0.000249791, No Iterations 4
GAMG:  Solving for p, Initial residual = 0.108474, Final residual = 0.00854112, No Iterations 2
time step continuity errors : sum local = 0.0311343, global = -8.84767e-16, cumulative = -4.10592e-15
smoothSolver:  Solving for nuTilda, Initial residual = 0.0089942, Final residual = 0.000426127, No Iterations 4
ExecutionTime = 0.49 s  ClockTime = 0 s

forces forces write:
    sum of forces:
        pressure : (-152.466 1667.26 2.42136e-20)
        viscous  : (0.968368 -0.0837981 -5.77952e-21)
        porous   : (0 0 0)
    sum of moments:
        pressure : (833.628 76.2331 302.914)
        viscous  : (-0.041899 -0.484184 0.0289671)
        porous   : (0 0 0)

forceCoeffs forceCoeffs write:
    Cm    = 0.378679
    Cd    = 0.189372
    Cl    = 2.08396
    Cl(f) = 1.42066
    Cl(r) = 0.663303

Time = 40

smoothSolver:  Solving for Ux, Initial residual = 0.006584, Final residual = 0.00041997, No Iterations 4
smoothSolver:  Solving for Uy, Initial residual = 0.00448909, Final residual = 0.000262015, No Iterations 4
GAMG:  Solving for p, Initial residual = 0.108739, Final residual = 0.00768213, No Iterations 2
time step continuity errors : sum local = 0.0294581, global = -5.07115e-16, cumulative = -4.61303e-15
smoothSolver:  Solving for nuTilda, Initial residual = 0.00938679, Final residual = 0.000444456, No Iterations 4
ExecutionTime = 0.5 s  ClockTime = 0 s

forces forces write:
    sum of forces:
        pressure : (-136.945 1672.99 -3.29983e-19)
        viscous  : (0.981561 -0.0945898 -6.11294e-21)
        porous   : (0 0 0)
    sum of moments:
        pressure : (836.496 68.4724 302.52)
        viscous  : (-0.0472949 -0.49078 0.0293224)
        porous   : (0 0 0)

forceCoeffs forceCoeffs write:
    Cm    = 0.378187
    Cd    = 0.169954
    Cl    = 2.09112
    Cl(f) = 1.42375
    Cl(r) = 0.667374

Time = 41

smoothSolver:  Solving for Ux, Initial residual = 0.0066317, Final residual = 0.000421066, No Iterations 4
smoothSolver:  Solving for Uy, Initial residual = 0.004618, Final residual = 0.000265153, No Iterations 4
GAMG:  Solving for p, Initial residual = 0.107308, Final residual = 0.00774826, No Iterations 2
time step continuity errors : sum local = 0.0287698, global = 1.80086e-15, cumulative = -2.81217e-15
smoothSolver:  Solving for nuTilda, Initial residual = 0.00974097, Final residual = 0.000467145, No Iterations 4
ExecutionTime = 0.51 s  ClockTime = 0 s

forces forces write:
    sum of forces:
        pressure : (-113.87 1638.64 -2.82247e-19)
        viscous  : (0.997178 -0.101339 -2.78647e-21)
        porous   : (0 0 0)
    sum of moments:
        pressure : (819.32 56.9352 288.915)
        viscous  : (-0.0506694 -0.498589 0.0287995)
        porous   : (0 0 0)

forceCoeffs forceCoeffs write:
    Cm    = 0.361179
    Cd    = 0.141092
    Cl    = 2.04817
    Cl(f) = 1.38527
    Cl(r) = 0.662908

Time = 42

smoothSolver:  Solving for Ux, Initial residual = 0.00672913, Final residual = 0.000426058, No Iterations 4
smoothSolver:  Solving for Uy, Initial residual = 0.00457618, Final residual = 0.000254533, No Iterations 4
GAMG:  Solving for p, Initial residual = 0.105888, Final residual = 0.00715497, No Iterations 2
time step continuity errors : sum local = 0.0268587, global = -1.79749e-15, cumulative = -4.60965e-15
smoothSolver:  Solving for nuTilda, Initial residual = 0.010119, Final residual = 0.000491592, No Iterations 4
ExecutionTime = 0.52 s  ClockTime = 0 s

forces forces write:
    sum of forces:
        pressure : (-96.0535 1577.11 -3.46795e-19)
        viscous  : (1.01465 -0.101464 5.67822e-22)
        porous   : (0 0 0)
    sum of moments:
        pressure : (788.557 48.0268 266.963)
        viscous  : (-0.0507321 -0.507323 0.028564)
        porous   : (0 0 0)

forceCoeffs forceCoeffs write:
    Cm    = 0.333739
    Cd    = 0.118799
    Cl    = 1.97127
    Cl(f) = 1.31937
    Cl(r) = 0.651894

Time = 43

smoothSolver:  Solving for Ux, Initial residual = 0.00668628, Final residual = 0.0004268, No Iterations 4
smoothSolver:  Solving for Uy, Initial residual = 0.00445121, Final residual = 0.000239867, No Iterations 4
GAMG:  Solving for p, Initial residual = 0.102683, Final residual = 0.00605016, No Iterations 2
time step continuity errors : sum local = 0.0236187, global = 2.86996e-15, cumulative = -1.7397e-15
smoothSolver:  Solving for nuTilda, Initial residual = 0.0104985, Final residual = 0.000515685, No Iterations 4
ExecutionTime = 0.53 s  ClockTime = 0 s

forces forces write:
    sum of forces:
        pressure : (-88.1898 1516.48 -6.55547e-19)
        viscous  : (1.03114 -0.096253 -1.69568e-21)
        porous   : (0 0 0)
    sum of moments:
        pressure : (758.238 44.0949 246.32)
        viscous  : (-0.0481265 -0.515568 0.028982)
        porous   : (0 0 0)

forceCoeffs forceCoeffs write:
    Cm    = 0.307936
    Cd    = 0.108948
    Cl    = 1.89548
    Cl(f) = 1.25567
    Cl(r) = 0.639802

Time = 44

smoothSolver:  Solving for Ux, Initial residual = 0.00650078, Final residual = 0.000419633, No Iterations 4
smoothSolver:  Solving for Uy, Initial residual = 0.00430178, Final residual = 0.000230591, No Iterations 4
GAMG:  Solving for p, Initial residual = 0.100218, Final residual = 0.00570219, No Iterations 2
time step continuity errors : sum local = 0.0217364, global = -2.04968e-15, cumulative = -3.78937e-15
smoothSolver:  Solving for nuTilda, Initial residual = 0.0108057, Final residual = 0.000545002, No Iterations 4
ExecutionTime = 0.55 s  ClockTime = 0 s

forces forces write:
    sum of forces:
        pressure : (-73.9423 1472.96 -6.76064e-19)
        viscous  : (1.04322 -0.0894285 -2.59879e-21)
        porous   : (0 0 0)
    sum of moments:
        pressure : (736.479 36.9711 234.217)
        viscous  : (-0.0447142 -0.521611 0.0296463)
        porous   : (0 0 0)

forceCoeffs forceCoeffs write:
    Cm    = 0.292808
    Cd    = 0.0911238
    Cl    = 1.84109
    Cl(f) = 1.21335
    Cl(r) = 0.627735

Time = 45

smoothSolver:  Solving for Ux, Initial residual = 0.00636886, Final residual = 0.000409203, No Iterations 4
smoothSolver:  Solving for Uy, Initial residual = 0.0041698, Final residual = 0.000223522, No Iterations 4
GAMG:  Solving for p, Initial residual = 0.098951, Final residual = 0.00522639, No Iterations 2
time step continuity errors : sum local = 0.0199961, global = 9.28188e-16, cumulative = -2.86119e-15
smoothSolver:  Solving for nuTilda, Initial residual = 0.0110768, Final residual = 0.000560247, No Iterations 4
ExecutionTime = 0.56 s  ClockTime = 0 s

forces forces write:
    sum of forces:
        pressure : (-58.4495 1449.72 -6.93081e-19)
        viscous  : (1.05757 -0.0854883 -2.04356e-21)
        porous   : (0 0 0)
    sum of moments:
        pressure : (724.862 29.2247 230.693)
        viscous  : (-0.0427442 -0.528783 0.0302773)
        porous   : (0 0 0)

forceCoeffs forceCoeffs write:
    Cm    = 0.288404
    Cd    = 0.0717399
    Cl    = 1.81205
    Cl(f) = 1.19443
    Cl(r) = 0.61762

Time = 46

smoothSolver:  Solving for Ux, Initial residual = 0.00625429, Final residual = 0.000397137, No Iterations 4
smoothSolver:  Solving for Uy, Initial residual = 0.00404541, Final residual = 0.000214975, No Iterations 4
GAMG:  Solving for p, Initial residual = 0.0961442, Final residual = 0.00468699, No Iterations 2
time step continuity errors : sum local = 0.0186883, global = -7.08618e-16, cumulative = -3.56981e-15
smoothSolver:  Solving for nuTilda, Initial residual = 0.0112431, Final residual = 0.000570269, No Iterations 4
ExecutionTime = 0.57 s  ClockTime = 0 s

forces forces write:
    sum of forces:
        pressure : (-48.3193 1449.12 -8.6721e-19)
        viscous  : (1.07135 -0.0831254 -1.32878e-21)
        porous   : (0 0 0)
    sum of moments:
        pressure : (724.561 24.1596 234.185)
        viscous  : (-0.0415627 -0.535673 0.0300965)
        porous   : (0 0 0)

forceCoeffs forceCoeffs write:
    Cm    = 0.292769
    Cd    = 0.0590599
    Cl    = 1.8113
    Cl(f) = 1.19842
    Cl(r) = 0.612879

Time = 47

smoothSolver:  Solving for Ux, Initial residual = 0.00608899, Final residual = 0.000379327, No Iterations 4
smoothSolver:  Solving for Uy, Initial residual = 0.00392892, Final residual = 0.000207298, No Iterations 4
GAMG:  Solving for p, Initial residual = 0.0913405, Final residual = 0.00503673, No Iterations 2
time step continuity errors : sum local = 0.0194233, global = 2.2414e-17, cumulative = -3.54739e-15
smoothSolver:  Solving for nuTilda, Initial residual = 0.011394, Final residual = 0.000577532, No Iterations 4
ExecutionTime = 0.58 s  ClockTime = 0 s

forces forces write:
    sum of forces:
        pressure : (-31.4195 1459.78 -8.13733e-19)
        viscous  : (1.08493 -0.0814045 3.48185e-21)
        porous   : (0 0 0)
    sum of moments:
        pressure : (729.889 15.7098 240.732)
        viscous  : (-0.0407023 -0.542464 0.0292978)
        porous   : (0 0 0)

forceCoeffs forceCoeffs write:
    Cm    = 0.300952
    Cd    = 0.0379183
    Cl    = 1.82462
    Cl(f) = 1.21326
    Cl(r) = 0.611359

Time = 48

smoothSolver:  Solving for Ux, Initial residual = 0.0059872, Final residual = 0.000367977, No Iterations 4
smoothSolver:  Solving for Uy, Initial residual = 0.00388294, Final residual = 0.00020614, No Iterations 4
GAMG:  Solving for p, Initial residual = 0.0882632, Final residual = 0.00475262, No Iterations 2
time step continuity errors : sum local = 0.0184612, global = 8.42315e-16, cumulative = -2.70508e-15
smoothSolver:  Solving for nuTilda, Initial residual = 0.011507, Final residual = 0.000582149, No Iterations 4
ExecutionTime = 0.59 s  ClockTime = 0 s

forces forces write:
    sum of forces:
        pressure : (-15.7954 1473.27 -8.09333e-19)
        viscous  : (1.10241 -0.0782556 3.6057e-21)
        porous   : (0 0 0)
    sum of moments:
        pressure : (736.637 7.89772 245.82)
        viscous  : (-0.0391278 -0.551203 0.0280635)
        porous   : (0 0 0)

forceCoeffs forceCoeffs write:
    Cm    = 0.307311
    Cd    = 0.0183663
    Cl    = 1.84149
    Cl(f) = 1.22806
    Cl(r) = 0.613436

Time = 49

smoothSolver:  Solving for Ux, Initial residual = 0.00592359, Final residual = 0.000359606, No Iterations 4
smoothSolver:  Solving for Uy, Initial residual = 0.00389243, Final residual = 0.0002095, No Iterations 4
GAMG:  Solving for p, Initial residual = 0.0859574, Final residual = 0.0046365, No Iterations 2
time step continuity errors : sum local = 0.0187812, global = 6.82049e-16, cumulative = -2.02303e-15
smoothSolver:  Solving for nuTilda, Initial residual = 0.0116775, Final residual = 0.000596036, No Iterations 4
ExecutionTime = 0.61 s  ClockTime = 0 s

forces forces write:
    sum of forces:
        pressure : (-8.65256 1478.19 -9.80233e-19)
        viscous  : (1.12033 -0.0719825 2.27802e-21)
        porous   : (0 0 0)
    sum of moments:
        pressure : (739.097 4.32628 245.742)
        viscous  : (-0.0359912 -0.560166 0.0264707)
        porous   : (0 0 0)

forceCoeffs forceCoeffs write:
    Cm    = 0.307211
    Cd    = 0.00941529
    Cl    = 1.84765
    Cl(f) = 1.23104
    Cl(r) = 0.616615

Time = 50

smoothSolver:  Solving for Ux, Initial residual = 0.00572487, Final residual = 0.00034011, No Iterations 4
smoothSolver:  Solving for Uy, Initial residual = 0.00379749, Final residual = 0.000205342, No Iterations 4
GAMG:  Solving for p, Initial residual = 0.0830304, Final residual = 0.00511031, No Iterations 2
time step continuity errors : sum local = 0.0208761, global = 6.65294e-16, cumulative = -1.35773e-15
smoothSolver:  Solving for nuTilda, Initial residual = 0.011843, Final residual = 0.000614343, No Iterations 4
ExecutionTime = 0.64 s  ClockTime = 0 s

forces forces write:
    sum of forces:
        pressure : (-2.58572 1474.37 -1.11895e-18)
        viscous  : (1.13547 -0.0637568 1.11866e-21)
        porous   : (0 0 0)
    sum of moments:
        pressure : (737.186 1.29286 241.844)
        viscous  : (-0.0318784 -0.567736 0.0248514)
        porous   : (0 0 0)

forceCoeffs forceCoeffs write:
    Cm    = 0.302336
    Cd    = 0.00181281
    Cl    = 1.84289
    Cl(f) = 1.22378
    Cl(r) = 0.619107

Time = 51

smoothSolver:  Solving for Ux, Initial residual = 0.00547173, Final residual = 0.000316689, No Iterations 4
smoothSolver:  Solving for Uy, Initial residual = 0.00365157, Final residual = 0.000196727, No Iterations 4
GAMG:  Solving for p, Initial residual = 0.0799645, Final residual = 0.0055096, No Iterations 2
time step continuity errors : sum local = 0.0217537, global = -9.46185e-16, cumulative = -2.30392e-15
smoothSolver:  Solving for nuTilda, Initial residual = 0.0120116, Final residual = 0.000628209, No Iterations 4
ExecutionTime = 0.65 s  ClockTime = 0 s

forces forces write:
    sum of forces:
        pressure : (9.41918 1456.77 -1.04589e-18)
        viscous  : (1.14962 -0.0548047 1.16221e-21)
        porous   : (0 0 0)
    sum of moments:
        pressure : (728.387 -4.70959 234.222)
        viscous  : (-0.0274023 -0.574809 0.02324)
        porous   : (0 0 0)

forceCoeffs forceCoeffs write:
    Cm    = 0.292806
    Cd    = -0.013211
    Cl    = 1.8209
    Cl(f) = 1.20326
    Cl(r) = 0.617643

Time = 52

smoothSolver:  Solving for Ux, Initial residual = 0.00528329, Final residual = 0.000295315, No Iterations 4
smoothSolver:  Solving for Uy, Initial residual = 0.00351952, Final residual = 0.000186148, No Iterations 4
GAMG:  Solving for p, Initial residual = 0.0769588, Final residual = 0.00550169, No Iterations 2
time step continuity errors : sum local = 0.0224231, global = -1.69757e-16, cumulative = -2.47368e-15
smoothSolver:  Solving for nuTilda, Initial residual = 0.0122255, Final residual = 0.000642996, No Iterations 4
ExecutionTime = 0.66 s  ClockTime = 0 s

forces forces write:
    sum of forces:
        pressure : (15.7383 1436.19 -1.10313e-18)
        viscous  : (1.1638 -0.0456557 -7.6231e-22)
        porous   : (0 0 0)
    sum of moments:
        pressure : (718.097 -7.86915 227.571)
        viscous  : (-0.0228279 -0.5819 0.021593)
        porous   : (0 0 0)

forceCoeffs forceCoeffs write:
    Cm    = 0.284491
    Cd    = -0.0211276
    Cl    = 1.79518
    Cl(f) = 1.18208
    Cl(r) = 0.613102

Time = 53

smoothSolver:  Solving for Ux, Initial residual = 0.00505586, Final residual = 0.000269131, No Iterations 4
smoothSolver:  Solving for Uy, Initial residual = 0.00343467, Final residual = 0.000178553, No Iterations 4
GAMG:  Solving for p, Initial residual = 0.0748927, Final residual = 0.00536562, No Iterations 2
time step continuity errors : sum local = 0.0219386, global = 1.89602e-16, cumulative = -2.28407e-15
smoothSolver:  Solving for nuTilda, Initial residual = 0.0124547, Final residual = 0.000659374, No Iterations 4
ExecutionTime = 0.67 s  ClockTime = 0 s

forces forces write:
    sum of forces:
        pressure : (21.6991 1413.66 -1.12196e-18)
        viscous  : (1.17458 -0.0369296 -2.4478e-21)
        porous   : (0 0 0)
    sum of moments:
        pressure : (706.83 -10.8496 222.767)
        viscous  : (-0.0184648 -0.587292 0.0200111)
        porous   : (0 0 0)

forceCoeffs forceCoeffs write:
    Cm    = 0.278484
    Cd    = -0.0285921
    Cl    = 1.76703
    Cl(f) = 1.162
    Cl(r) = 0.605031

Time = 54

smoothSolver:  Solving for Ux, Initial residual = 0.00486726, Final residual = 0.000244843, No Iterations 4
smoothSolver:  Solving for Uy, Initial residual = 0.00341947, Final residual = 0.000173547, No Iterations 4
GAMG:  Solving for p, Initial residual = 0.0750838, Final residual = 0.00510779, No Iterations 2
time step continuity errors : sum local = 0.0210096, global = -1.9422e-15, cumulative = -4.22627e-15
smoothSolver:  Solving for nuTilda, Initial residual = 0.012629, Final residual = 0.000674731, No Iterations 4
ExecutionTime = 0.69 s  ClockTime = 0 s

forces forces write:
    sum of forces:
        pressure : (27.0967 1393.39 -1.11478e-18)
        viscous  : (1.1834 -0.0288778 -2.38925e-21)
        porous   : (0 0 0)
    sum of moments:
        pressure : (696.694 -13.5483 220.923)
        viscous  : (-0.0144389 -0.591698 0.0186647)
        porous   : (0 0 0)

forceCoeffs forceCoeffs write:
    Cm    = 0.276177
    Cd    = -0.0353501
    Cl    = 1.7417
    Cl(f) = 1.14703
    Cl(r) = 0.594673

Time = 55

smoothSolver:  Solving for Ux, Initial residual = 0.00474043, Final residual = 0.000225503, No Iterations 4
smoothSolver:  Solving for Uy, Initial residual = 0.00347921, Final residual = 0.000171827, No Iterations 4
GAMG:  Solving for p, Initial residual = 0.0765186, Final residual = 0.00483963, No Iterations 2
time step continuity errors : sum local = 0.0200765, global = -7.3623e-17, cumulative = -4.29989e-15
smoothSolver:  Solving for nuTilda, Initial residual = 0.0129184, Final residual = 0.000687608, No Iterations 4
ExecutionTime = 0.69 s  ClockTime = 0 s

forces forces write:
    sum of forces:
        pressure : (31.7514 1379.92 -1.10051e-18)
        viscous  : (1.19069 -0.0211893 -3.11186e-21)
        porous   : (0 0 0)
    sum of moments:
        pressure : (689.958 -15.8757 222.614)
        viscous  : (-0.0105946 -0.595343 0.0175513)
        porous   : (0 0 0)

forceCoeffs forceCoeffs write:
    Cm    = 0.27829
    Cd    = -0.0411777
    Cl    = 1.72487
    Cl(f) = 1.14072
    Cl(r) = 0.584144

Time = 56

smoothSolver:  Solving for Ux, Initial residual = 0.00471287, Final residual = 0.000218254, No Iterations 4
smoothSolver:  Solving for Uy, Initial residual = 0.00357873, Final residual = 0.000173746, No Iterations 4
GAMG:  Solving for p, Initial residual = 0.078141, Final residual = 0.00444793, No Iterations 2
time step continuity errors : sum local = 0.0186335, global = -5.60266e-16, cumulative = -4.86016e-15
smoothSolver:  Solving for nuTilda, Initial residual = 0.0131775, Final residual = 0.0006966, No Iterations 4
ExecutionTime = 0.71 s  ClockTime = 0 s

forces forces write:
    sum of forces:
        pressure : (35.5415 1376.13 -1.09446e-18)
        viscous  : (1.19694 -0.0137164 -3.79262e-21)
        porous   : (0 0 0)
    sum of moments:
        pressure : (688.064 -17.7707 227.466)
        viscous  : (-0.00685822 -0.598472 0.0165796)
        porous   : (0 0 0)

forceCoeffs forceCoeffs write:
    Cm    = 0.284353
    Cd    = -0.045923
    Cl    = 1.72014
    Cl(f) = 1.14442
    Cl(r) = 0.575719

Time = 57

smoothSolver:  Solving for Ux, Initial residual = 0.00474858, Final residual = 0.000218995, No Iterations 4
smoothSolver:  Solving for Uy, Initial residual = 0.00368381, Final residual = 0.000180732, No Iterations 4
GAMG:  Solving for p, Initial residual = 0.0795952, Final residual = 0.00386328, No Iterations 2
time step continuity errors : sum local = 0.016339, global = 1.65681e-16, cumulative = -4.69448e-15
smoothSolver:  Solving for nuTilda, Initial residual = 0.013467, Final residual = 0.00070629, No Iterations 4
ExecutionTime = 0.72 s  ClockTime = 0 s

forces forces write:
    sum of forces:
        pressure : (38.6913 1380.7 -1.10099e-18)
        viscous  : (1.20299 -0.00661095 -3.70705e-21)
        porous   : (0 0 0)
    sum of moments:
        pressure : (690.35 -19.3456 234.014)
        viscous  : (-0.00330547 -0.601496 0.0156511)
        porous   : (0 0 0)

forceCoeffs forceCoeffs write:
    Cm    = 0.292537
    Cd    = -0.0498678
    Cl    = 1.72587
    Cl(f) = 1.15547
    Cl(r) = 0.570396

Time = 58

smoothSolver:  Solving for Ux, Initial residual = 0.00472433, Final residual = 0.000223386, No Iterations 4
smoothSolver:  Solving for Uy, Initial residual = 0.00373798, Final residual = 0.000185569, No Iterations 4
GAMG:  Solving for p, Initial residual = 0.0806438, Final residual = 0.00348996, No Iterations 2
time step continuity errors : sum local = 0.0148558, global = -1.04511e-15, cumulative = -5.73959e-15
smoothSolver:  Solving for nuTilda, Initial residual = 0.0137597, Final residual = 0.000716338, No Iterations 4
ExecutionTime = 0.73 s  ClockTime = 0 s

forces forces write:
    sum of forces:
        pressure : (41.7095 1387.82 -1.11519e-18)
        viscous  : (1.20856 0.000361368 -2.10292e-21)
        porous   : (0 0 0)
    sum of moments:
        pressure : (693.911 -20.8547 240.234)
        viscous  : (0.000180684 -0.604282 0.0145997)
        porous   : (0 0 0)

forceCoeffs forceCoeffs write:
    Cm    = 0.30031
    Cd    = -0.0536476
    Cl    = 1.73478
    Cl(f) = 1.1677
    Cl(r) = 0.567078

Time = 59

smoothSolver:  Solving for Ux, Initial residual = 0.0046564, Final residual = 0.000224511, No Iterations 4
smoothSolver:  Solving for Uy, Initial residual = 0.00373045, Final residual = 0.000183371, No Iterations 4
GAMG:  Solving for p, Initial residual = 0.0805527, Final residual = 0.00338256, No Iterations 2
time step continuity errors : sum local = 0.0144078, global = 1.53524e-15, cumulative = -4.20435e-15
smoothSolver:  Solving for nuTilda, Initial residual = 0.0139806, Final residual = 0.000717665, No Iterations 4
ExecutionTime = 0.74 s  ClockTime = 0 s

forces forces write:
    sum of forces:
        pressure : (45.0458 1391.18 -1.13097e-18)
        viscous  : (1.21413 0.00796643 -1.05085e-21)
        porous   : (0 0 0)
    sum of moments:
        pressure : (695.592 -22.5229 244.738)
        viscous  : (0.00398321 -0.607065 0.0132181)
        porous   : (0 0 0)

forceCoeffs forceCoeffs write:
    Cm    = 0.305939
    Cd    = -0.057825
    Cl    = 1.73899
    Cl(f) = 1.17543
    Cl(r) = 0.563556

Time = 60

smoothSolver:  Solving for Ux, Initial residual = 0.00454556, Final residual = 0.000222405, No Iterations 4
smoothSolver:  Solving for Uy, Initial residual = 0.00363565, Final residual = 0.000174368, No Iterations 4
GAMG:  Solving for p, Initial residual = 0.0792837, Final residual = 0.00333628, No Iterations 2
time step continuity errors : sum local = 0.0141055, global = 4.55426e-16, cumulative = -3.74893e-15
smoothSolver:  Solving for nuTilda, Initial residual = 0.014079, Final residual = 0.000708752, No Iterations 4
ExecutionTime = 0.75 s  ClockTime = 0 s

forces forces write:
    sum of forces:
        pressure : (48.7751 1386.27 -1.14191e-18)
        viscous  : (1.21871 0.0147754 2.16411e-22)
        porous   : (0 0 0)
    sum of moments:
        pressure : (693.135 -24.3875 247.108)
        viscous  : (0.00738772 -0.609353 0.011965)
        porous   : (0 0 0)

forceCoeffs forceCoeffs write:
    Cm    = 0.308901
    Cd    = -0.0624922
    Cl    = 1.73286
    Cl(f) = 1.17533
    Cl(r) = 0.557528

Time = 61

smoothSolver:  Solving for Ux, Initial residual = 0.00446354, Final residual = 0.000220326, No Iterations 4
smoothSolver:  Solving for Uy, Initial residual = 0.00347585, Final residual = 0.000159511, No Iterations 4
GAMG:  Solving for p, Initial residual = 0.0789465, Final residual = 0.00327653, No Iterations 2
time step continuity errors : sum local = 0.0137174, global = -1.11895e-16, cumulative = -3.86082e-15
smoothSolver:  Solving for nuTilda, Initial residual = 0.0140529, Final residual = 0.000691046, No Iterations 4
ExecutionTime = 0.77 s  ClockTime = 0 s

forces forces write:
    sum of forces:
        pressure : (52.5247 1371.15 -1.15074e-18)
        viscous  : (1.22224 0.0205466 1.74213e-21)
        porous   : (0 0 0)
    sum of moments:
        pressure : (685.577 -26.2623 247.397)
        viscous  : (0.0102733 -0.611122 0.0109909)
        porous   : (0 0 0)

forceCoeffs forceCoeffs write:
    Cm    = 0.30926
    Cd    = -0.0671836
    Cl    = 1.71397
    Cl(f) = 1.16624
    Cl(r) = 0.547724

Time = 62

smoothSolver:  Solving for Ux, Initial residual = 0.00443034, Final residual = 0.000219515, No Iterations 4
smoothSolver:  Solving for Uy, Initial residual = 0.00331591, Final residual = 0.000142797, No Iterations 4
GAMG:  Solving for p, Initial residual = 0.0794148, Final residual = 0.00324916, No Iterations 2
time step continuity errors : sum local = 0.0136655, global = -7.23199e-16, cumulative = -4.58402e-15
smoothSolver:  Solving for nuTilda, Initial residual = 0.0138595, Final residual = 0.000660842, No Iterations 4
ExecutionTime = 0.78 s  ClockTime = 0 s

forces forces write:
    sum of forces:
        pressure : (55.6891 1346.85 -1.15856e-18)
        viscous  : (1.22505 0.0255017 1.25894e-21)
        porous   : (0 0 0)
    sum of moments:
        pressure : (673.424 -27.8446 246.091)
        viscous  : (0.0127508 -0.612527 0.0102796)
        porous   : (0 0 0)

forceCoeffs forceCoeffs write:
    Cm    = 0.307627
    Cd    = -0.0711427
    Cl    = 1.68359
    Cl(f) = 1.14942
    Cl(r) = 0.534169

Time = 63

smoothSolver:  Solving for Ux, Initial residual = 0.00441864, Final residual = 0.000219638, No Iterations 4
smoothSolver:  Solving for Uy, Initial residual = 0.0031818, Final residual = 0.000129346, No Iterations 4
GAMG:  Solving for p, Initial residual = 0.0799506, Final residual = 0.00328398, No Iterations 2
time step continuity errors : sum local = 0.0139475, global = 6.38702e-16, cumulative = -3.94532e-15
smoothSolver:  Solving for nuTilda, Initial residual = 0.0136738, Final residual = 0.000637423, No Iterations 4
ExecutionTime = 0.79 s  ClockTime = 1 s

forces forces write:
    sum of forces:
        pressure : (57.5905 1317.42 -1.16518e-18)
        viscous  : (1.22909 0.031382 2.1073e-21)
        porous   : (0 0 0)
    sum of moments:
        pressure : (658.71 -28.7952 243.998)
        viscous  : (0.015691 -0.614546 0.00932216)
        porous   : (0 0 0)

forceCoeffs forceCoeffs write:
    Cm    = 0.305009
    Cd    = -0.0735245
    Cl    = 1.64681
    Cl(f) = 1.12842
    Cl(r) = 0.518398

Time = 64

smoothSolver:  Solving for Ux, Initial residual = 0.00441155, Final residual = 0.000221303, No Iterations 4
smoothSolver:  Solving for Uy, Initial residual = 0.00311228, Final residual = 0.000120044, No Iterations 4
GAMG:  Solving for p, Initial residual = 0.0798755, Final residual = 0.00343048, No Iterations 2
time step continuity errors : sum local = 0.0146776, global = -2.52265e-15, cumulative = -6.46797e-15
smoothSolver:  Solving for nuTilda, Initial residual = 0.0134579, Final residual = 0.000611589, No Iterations 4
ExecutionTime = 0.8 s  ClockTime = 1 s

forces forces write:
    sum of forces:
        pressure : (57.9601 1287.73 -1.17079e-18)
        viscous  : (1.23307 0.0360582 1.29755e-21)
        porous   : (0 0 0)
    sum of moments:
        pressure : (643.866 -28.98 241.922)
        viscous  : (0.0180291 -0.616533 0.00861215)
        porous   : (0 0 0)

forceCoeffs forceCoeffs write:
    Cm    = 0.302413
    Cd    = -0.0739914
    Cl    = 1.60971
    Cl(f) = 1.10727
    Cl(r) = 0.502442

Time = 65

smoothSolver:  Solving for Ux, Initial residual = 0.00441827, Final residual = 0.000226621, No Iterations 4
smoothSolver:  Solving for Uy, Initial residual = 0.00310999, Final residual = 0.000115322, No Iterations 4
GAMG:  Solving for p, Initial residual = 0.0788868, Final residual = 0.00361109, No Iterations 2
time step continuity errors : sum local = 0.0155223, global = -1.19118e-15, cumulative = -7.65915e-15
smoothSolver:  Solving for nuTilda, Initial residual = 0.0133644, Final residual = 0.000594401, No Iterations 4
ExecutionTime = 0.81 s  ClockTime = 1 s

forces forces write:
    sum of forces:
        pressure : (57.1249 1260.01 -1.17869e-18)
        viscous  : (1.23704 0.039163 1.07096e-21)
        porous   : (0 0 0)
    sum of moments:
        pressure : (630.005 -28.5625 240.073)
        viscous  : (0.0195815 -0.618521 0.00815012)
        porous   : (0 0 0)

forceCoeffs forceCoeffs write:
    Cm    = 0.300101
    Cd    = -0.0729525
    Cl    = 1.57506
    Cl(f) = 1.08763
    Cl(r) = 0.48743

Time = 66

smoothSolver:  Solving for Ux, Initial residual = 0.00456738, Final residual = 0.00024089, No Iterations 4
smoothSolver:  Solving for Uy, Initial residual = 0.00316314, Final residual = 0.000112642, No Iterations 4
GAMG:  Solving for p, Initial residual = 0.0770004, Final residual = 0.00353778, No Iterations 2
time step continuity errors : sum local = 0.0152936, global = 1.36444e-15, cumulative = -6.29471e-15
smoothSolver:  Solving for nuTilda, Initial residual = 0.013283, Final residual = 0.000570072, No Iterations 4
ExecutionTime = 0.83 s  ClockTime = 1 s

forces forces write:
    sum of forces:
        pressure : (55.7757 1233.67 -1.19219e-18)
        viscous  : (1.2408 0.0416187 9.6754e-22)
        porous   : (0 0 0)
    sum of moments:
        pressure : (616.836 -27.8879 238.11)
        viscous  : (0.0208094 -0.620398 0.00768443)
        porous   : (0 0 0)

forceCoeffs forceCoeffs write:
    Cm    = 0.297647
    Cd    = -0.0712706
    Cl    = 1.54214
    Cl(f) = 1.06872
    Cl(r) = 0.473424

Time = 67

smoothSolver:  Solving for Ux, Initial residual = 0.00492942, Final residual = 0.000263334, No Iterations 4
smoothSolver:  Solving for Uy, Initial residual = 0.00327657, Final residual = 0.00011167, No Iterations 4
GAMG:  Solving for p, Initial residual = 0.0743517, Final residual = 0.00318816, No Iterations 2
time step continuity errors : sum local = 0.0139016, global = -1.02944e-15, cumulative = -7.32415e-15
smoothSolver:  Solving for nuTilda, Initial residual = 0.0132675, Final residual = 0.000542208, No Iterations 4
ExecutionTime = 0.83 s  ClockTime = 1 s

forces forces write:
    sum of forces:
        pressure : (54.2531 1206.33 -1.20054e-18)
        viscous  : (1.24364 0.0431834 9.7409e-22)
        porous   : (0 0 0)
    sum of moments:
        pressure : (603.166 -27.1266 235.21)
        viscous  : (0.0215917 -0.621822 0.00730747)
        porous   : (0 0 0)

forceCoeffs forceCoeffs write:
    Cm    = 0.294021
    Cd    = -0.069371
    Cl    = 1.50797
    Cl(f) = 1.04801
    Cl(r) = 0.459963

Time = 68

smoothSolver:  Solving for Ux, Initial residual = 0.00539437, Final residual = 0.000289114, No Iterations 4
smoothSolver:  Solving for Uy, Initial residual = 0.00341946, Final residual = 0.00011277, No Iterations 4
GAMG:  Solving for p, Initial residual = 0.0739509, Final residual = 0.00308301, No Iterations 2
time step continuity errors : sum local = 0.0135356, global = -1.51519e-15, cumulative = -8.83934e-15
smoothSolver:  Solving for nuTilda, Initial residual = 0.0133441, Final residual = 0.000522018, No Iterations 4
ExecutionTime = 0.85 s  ClockTime = 1 s

forces forces write:
    sum of forces:
        pressure : (52.8057 1176.01 -1.19598e-18)
        viscous  : (1.24647 0.0453287 1.69171e-21)
        porous   : (0 0 0)
    sum of moments:
        pressure : (588.003 -26.4029 230.598)
        viscous  : (0.0226643 -0.623236 0.00667764)
        porous   : (0 0 0)

forceCoeffs forceCoeffs write:
    Cm    = 0.288256
    Cd    = -0.0675652
    Cl    = 1.47006
    Cl(f) = 1.02329
    Cl(r) = 0.446775

Time = 69

smoothSolver:  Solving for Ux, Initial residual = 0.00581816, Final residual = 0.000310849, No Iterations 4
smoothSolver:  Solving for Uy, Initial residual = 0.00351707, Final residual = 0.000115847, No Iterations 4
GAMG:  Solving for p, Initial residual = 0.0769882, Final residual = 0.0035353, No Iterations 2
time step continuity errors : sum local = 0.0155278, global = -2.10524e-16, cumulative = -9.04986e-15
smoothSolver:  Solving for nuTilda, Initial residual = 0.0134163, Final residual = 0.000499905, No Iterations 4
ExecutionTime = 0.86 s  ClockTime = 1 s

forces forces write:
    sum of forces:
        pressure : (51.3209 1143.2 -1.17881e-18)
        viscous  : (1.24892 0.0470454 2.84971e-21)
        porous   : (0 0 0)
    sum of moments:
        pressure : (571.602 -25.6604 224.213)
        viscous  : (0.0235227 -0.624462 0.00610435)
        porous   : (0 0 0)

forceCoeffs forceCoeffs write:
    Cm    = 0.280274
    Cd    = -0.0657123
    Cl    = 1.42906
    Cl(f) = 0.994806
    Cl(r) = 0.434259

Time = 70

smoothSolver:  Solving for Ux, Initial residual = 0.00613547, Final residual = 0.000325802, No Iterations 4
smoothSolver:  Solving for Uy, Initial residual = 0.00350958, Final residual = 0.000120752, No Iterations 4
GAMG:  Solving for p, Initial residual = 0.0834032, Final residual = 0.00404352, No Iterations 2
time step continuity errors : sum local = 0.0177403, global = -4.75549e-16, cumulative = -9.52541e-15
smoothSolver:  Solving for nuTilda, Initial residual = 0.0134461, Final residual = 0.000476553, No Iterations 4
ExecutionTime = 0.87 s  ClockTime = 1 s

forces forces write:
    sum of forces:
        pressure : (49.4143 1110.26 -1.15727e-18)
        viscous  : (1.25087 0.0484055 3.1522e-21)
        porous   : (0 0 0)
    sum of moments:
        pressure : (555.132 -24.7071 216.756)
        viscous  : (0.0242027 -0.625437 0.0056368)
        porous   : (0 0 0)

forceCoeffs forceCoeffs write:
    Cm    = 0.270952
    Cd    = -0.0633315
    Cl    = 1.38789
    Cl(f) = 0.964898
    Cl(r) = 0.422994

Time = 71

smoothSolver:  Solving for Ux, Initial residual = 0.00633523, Final residual = 0.000337191, No Iterations 4
smoothSolver:  Solving for Uy, Initial residual = 0.00345446, Final residual = 0.000123884, No Iterations 4
GAMG:  Solving for p, Initial residual = 0.0882791, Final residual = 0.00443576, No Iterations 2
time step continuity errors : sum local = 0.0193442, global = -3.55858e-16, cumulative = -9.88127e-15
smoothSolver:  Solving for nuTilda, Initial residual = 0.0134696, Final residual = 0.000460915, No Iterations 4
ExecutionTime = 0.88 s  ClockTime = 1 s

forces forces write:
    sum of forces:
        pressure : (46.8599 1079.2 -1.13044e-18)
        viscous  : (1.25207 0.0495746 4.2678e-21)
        porous   : (0 0 0)
    sum of moments:
        pressure : (539.602 -23.4299 209.056)
        viscous  : (0.0247873 -0.626034 0.00527238)
        porous   : (0 0 0)

forceCoeffs forceCoeffs write:
    Cm    = 0.261327
    Cd    = -0.0601399
    Cl    = 1.34907
    Cl(f) = 0.93586
    Cl(r) = 0.413207

Time = 72

smoothSolver:  Solving for Ux, Initial residual = 0.00654358, Final residual = 0.000348776, No Iterations 4
smoothSolver:  Solving for Uy, Initial residual = 0.00338264, Final residual = 0.00012943, No Iterations 4
GAMG:  Solving for p, Initial residual = 0.0913491, Final residual = 0.00465958, No Iterations 2
time step continuity errors : sum local = 0.0201252, global = -9.92659e-17, cumulative = -9.98054e-15
smoothSolver:  Solving for nuTilda, Initial residual = 0.0134765, Final residual = 0.000429766, No Iterations 4
ExecutionTime = 0.89 s  ClockTime = 1 s

forces forces write:
    sum of forces:
        pressure : (43.5591 1051.96 -1.09948e-18)
        viscous  : (1.25207 0.0505309 4.04138e-21)
        porous   : (0 0 0)
    sum of moments:
        pressure : (525.98 -21.7796 201.823)
        viscous  : (0.0252654 -0.626034 0.0050484)
        porous   : (0 0 0)

forceCoeffs forceCoeffs write:
    Cm    = 0.252286
    Cd    = -0.056014
    Cl    = 1.31501
    Cl(f) = 0.909792
    Cl(r) = 0.405221

Time = 73

smoothSolver:  Solving for Ux, Initial residual = 0.00673192, Final residual = 0.000356681, No Iterations 4
smoothSolver:  Solving for Uy, Initial residual = 0.00335041, Final residual = 0.000140222, No Iterations 4
GAMG:  Solving for p, Initial residual = 0.0924323, Final residual = 0.00493516, No Iterations 2
time step continuity errors : sum local = 0.0205714, global = 3.59068e-16, cumulative = -9.62147e-15
smoothSolver:  Solving for nuTilda, Initial residual = 0.0133922, Final residual = 0.000452273, No Iterations 4
ExecutionTime = 0.91 s  ClockTime = 1 s

forces forces write:
    sum of forces:
        pressure : (37.1865 1029.38 -1.14956e-18)
        viscous  : (1.25024 0.0511478 2.79608e-21)
        porous   : (0 0 0)
    sum of moments:
        pressure : (514.691 -18.5932 195.291)
        viscous  : (0.0255739 -0.625119 0.00500701)
        porous   : (0 0 0)

forceCoeffs forceCoeffs write:
    Cm    = 0.24412
    Cd    = -0.0480459
    Cl    = 1.28679
    Cl(f) = 0.887516
    Cl(r) = 0.399276

Time = 74

smoothSolver:  Solving for Ux, Initial residual = 0.00693869, Final residual = 0.000358347, No Iterations 4
smoothSolver:  Solving for Uy, Initial residual = 0.0034163, Final residual = 0.000154636, No Iterations 4
GAMG:  Solving for p, Initial residual = 0.0909728, Final residual = 0.0049467, No Iterations 2
time step continuity errors : sum local = 0.0206411, global = 1.4865e-15, cumulative = -8.13497e-15
smoothSolver:  Solving for nuTilda, Initial residual = 0.0138554, Final residual = 0.000478551, No Iterations 4
ExecutionTime = 0.91 s  ClockTime = 1 s

forces forces write:
    sum of forces:
        pressure : (32.8217 1013.61 -1.11064e-18)
        viscous  : (1.24696 0.0512847 2.89414e-21)
        porous   : (0 0 0)
    sum of moments:
        pressure : (506.803 -16.4109 190.296)
        viscous  : (0.0256423 -0.62348 0.00511944)
        porous   : (0 0 0)

forceCoeffs forceCoeffs write:
    Cm    = 0.237876
    Cd    = -0.0425859
    Cl    = 1.26707
    Cl(f) = 0.871413
    Cl(r) = 0.39566

Time = 75

smoothSolver:  Solving for Ux, Initial residual = 0.00709533, Final residual = 0.00034853, No Iterations 4
smoothSolver:  Solving for Uy, Initial residual = 0.00356451, Final residual = 0.000173518, No Iterations 4
GAMG:  Solving for p, Initial residual = 0.0914485, Final residual = 0.00517482, No Iterations 2
time step continuity errors : sum local = 0.0213122, global = -3.95746e-16, cumulative = -8.53072e-15
smoothSolver:  Solving for nuTilda, Initial residual = 0.0166187, Final residual = 0.000456827, No Iterations 4
ExecutionTime = 0.93 s  ClockTime = 1 s

forces forces write:
    sum of forces:
        pressure : (28.3442 1002.12 -1.07021e-18)
        viscous  : (1.24381 0.0520696 3.85379e-21)
        porous   : (0 0 0)
    sum of moments:
        pressure : (501.062 -14.1721 186.019)
        viscous  : (0.0260348 -0.621904 0.00507514)
        porous   : (0 0 0)

forceCoeffs forceCoeffs write:
    Cm    = 0.23253
    Cd    = -0.0369851
    Cl    = 1.25272
    Cl(f) = 0.85889
    Cl(r) = 0.393831

Time = 76

smoothSolver:  Solving for Ux, Initial residual = 0.00775423, Final residual = 0.000326708, No Iterations 4
smoothSolver:  Solving for Uy, Initial residual = 0.00420507, Final residual = 0.00018421, No Iterations 4
GAMG:  Solving for p, Initial residual = 0.157533, Final residual = 0.013776, No Iterations 2
time step continuity errors : sum local = 0.0556369, global = 1.53752e-15, cumulative = -6.9932e-15
smoothSolver:  Solving for nuTilda, Initial residual = 0.0127235, Final residual = 0.000418424, No Iterations 4
ExecutionTime = 0.94 s  ClockTime = 1 s

[...]
        pressure : (632.695 4.62683 220.315)
        viscous  : (0.0365386 -0.404027 0.0342188)
        porous   : (0 0 0)

forceCoeffs forceCoeffs write:
    Cm    = 0.275436
    Cd    = 0.010557
    Cl    = 1.58183
    Cl(f) = 1.06635
    Cl(r) = 0.515478

Time = 396

smoothSolver:  Solving for Ux, Initial residual = 1.38566e-06, Final residual = 7.02861e-08, No Iterations 4
smoothSolver:  Solving for Uy, Initial residual = 1.03441e-06, Final residual = 5.07969e-08, No Iterations 4
GAMG:  Solving for p, Initial residual = 2.04945e-05, Final residual = 1.17682e-06, No Iterations 2
time step continuity errors : sum local = 4.48579e-06, global = 1.55007e-15, cumulative = -9.95321e-15
smoothSolver:  Solving for nuTilda, Initial residual = 4.81615e-06, Final residual = 1.95237e-07, No Iterations 4
ExecutionTime = 4.78 s  ClockTime = 5 s

forces forces write:
    sum of forces:
        pressure : (-9.25276 1265.38 -1.07574e-18)
        viscous  : (0.808057 0.0730773 -3.08291e-21)
        porous   : (0 0 0)
    sum of moments:
        pressure : (632.691 4.62638 220.313)
        viscous  : (0.0365386 -0.404029 0.0342187)
        porous   : (0 0 0)

forceCoeffs forceCoeffs write:
    Cm    = 0.275434
    Cd    = 0.0105559
    Cl    = 1.58182
    Cl(f) = 1.06634
    Cl(r) = 0.515475

Time = 397

smoothSolver:  Solving for Ux, Initial residual = 1.36204e-06, Final residual = 6.84532e-08, No Iterations 4
smoothSolver:  Solving for Uy, Initial residual = 1.01117e-06, Final residual = 4.81895e-08, No Iterations 4
GAMG:  Solving for p, Initial residual = 1.9794e-05, Final residual = 1.22332e-06, No Iterations 2
time step continuity errors : sum local = 4.41915e-06, global = 6.36092e-16, cumulative = -9.31712e-15
smoothSolver:  Solving for nuTilda, Initial residual = 5.0012e-06, Final residual = 1.98843e-07, No Iterations 4
ExecutionTime = 4.79 s  ClockTime = 5 s

forces forces write:
    sum of forces:
        pressure : (-9.25065 1265.37 -1.0757e-18)
        viscous  : (0.808061 0.0730776 -3.08247e-21)
        porous   : (0 0 0)
    sum of moments:
        pressure : (632.687 4.62533 220.312)
        viscous  : (0.0365388 -0.40403 0.0342186)
        porous   : (0 0 0)

forceCoeffs forceCoeffs write:
    Cm    = 0.275433
    Cd    = 0.0105532
    Cl    = 1.58181
    Cl(f) = 1.06634
    Cl(r) = 0.515472

Time = 398

smoothSolver:  Solving for Ux, Initial residual = 1.33587e-06, Final residual = 6.56348e-08, No Iterations 4
smoothSolver:  Solving for Uy, Initial residual = 9.8563e-07, Final residual = 4.60183e-08, No Iterations 4
GAMG:  Solving for p, Initial residual = 1.92139e-05, Final residual = 9.63001e-07, No Iterations 2
time step continuity errors : sum local = 3.62972e-06, global = -1.44236e-15, cumulative = -1.07595e-14
smoothSolver:  Solving for nuTilda, Initial residual = 5.11527e-06, Final residual = 1.9981e-07, No Iterations 4
ExecutionTime = 4.8 s  ClockTime = 5 s

forces forces write:
    sum of forces:
        pressure : (-9.24979 1265.37 -1.07571e-18)
        viscous  : (0.808065 0.0730782 -3.08227e-21)
        porous   : (0 0 0)
    sum of moments:
        pressure : (632.685 4.62489 220.311)
        viscous  : (0.0365391 -0.404032 0.0342184)
        porous   : (0 0 0)

forceCoeffs forceCoeffs write:
    Cm    = 0.275432
    Cd    = 0.0105522
    Cl    = 1.5818
    Cl(f) = 1.06633
    Cl(r) = 0.515469

Time = 399

smoothSolver:  Solving for Ux, Initial residual = 1.28929e-06, Final residual = 6.15318e-08, No Iterations 4
smoothSolver:  Solving for Uy, Initial residual = 9.42941e-07, Final residual = 4.35591e-08, No Iterations 4
GAMG:  Solving for p, Initial residual = 1.85615e-05, Final residual = 1.69461e-06, No Iterations 1
time step continuity errors : sum local = 6.21783e-06, global = 9.1106e-16, cumulative = -9.84842e-15
smoothSolver:  Solving for nuTilda, Initial residual = 5.20747e-06, Final residual = 1.99612e-07, No Iterations 4
ExecutionTime = 4.82 s  ClockTime = 5 s

forces forces write:
    sum of forces:
        pressure : (-9.24955 1265.37 -1.07572e-18)
        viscous  : (0.808069 0.0730787 -3.08208e-21)
        porous   : (0 0 0)
    sum of moments:
        pressure : (632.684 4.62478 220.311)
        viscous  : (0.0365393 -0.404034 0.0342183)
        porous   : (0 0 0)

forceCoeffs forceCoeffs write:
    Cm    = 0.275432
    Cd    = 0.0105519
    Cl    = 1.5818
    Cl(f) = 1.06633
    Cl(r) = 0.515469

Time = 400

smoothSolver:  Solving for Ux, Initial residual = 1.19945e-06, Final residual = 5.38031e-08, No Iterations 4
smoothSolver:  Solving for Uy, Initial residual = 8.86591e-07, Final residual = 4.17879e-08, No Iterations 4
GAMG:  Solving for p, Initial residual = 1.83574e-05, Final residual = 9.6288e-07, No Iterations 2
time step continuity errors : sum local = 3.60283e-06, global = -1.41207e-15, cumulative = -1.12605e-14
smoothSolver:  Solving for nuTilda, Initial residual = 5.19247e-06, Final residual = 1.95812e-07, No Iterations 4
ExecutionTime = 4.85 s  ClockTime = 5 s

forces forces write:
    sum of forces:
        pressure : (-9.24934 1265.37 -1.07574e-18)
        viscous  : (0.808072 0.0730792 -3.08191e-21)
        porous   : (0 0 0)
    sum of moments:
        pressure : (632.683 4.62467 220.311)
        viscous  : (0.0365396 -0.404036 0.0342181)
        porous   : (0 0 0)

forceCoeffs forceCoeffs write:
    Cm    = 0.275431
    Cd    = 0.0105516
    Cl    = 1.5818
    Cl(f) = 1.06633
    Cl(r) = 0.515468

Time = 401

smoothSolver:  Solving for Ux, Initial residual = 1.12803e-06, Final residual = 4.85081e-08, No Iterations 4
smoothSolver:  Solving for Uy, Initial residual = 8.38008e-07, Final residual = 3.86186e-08, No Iterations 4
GAMG:  Solving for p, Initial residual = 1.76938e-05, Final residual = 9.33802e-07, No Iterations 2
time step continuity errors : sum local = 3.50283e-06, global = 1.61683e-15, cumulative = -9.64365e-15
smoothSolver:  Solving for nuTilda, Initial residual = 5.14685e-06, Final residual = 1.9083e-07, No Iterations 4
ExecutionTime = 4.86 s  ClockTime = 5 s

forces forces write:
    sum of forces:
        pressure : (-9.24916 1265.36 -1.07575e-18)
        viscous  : (0.808075 0.0730799 -3.08169e-21)
        porous   : (0 0 0)
    sum of moments:
        pressure : (632.682 4.62458 220.31)
        viscous  : (0.0365399 -0.404038 0.0342179)
        porous   : (0 0 0)

forceCoeffs forceCoeffs write:
    Cm    = 0.275431
    Cd    = 0.0105514
    Cl    = 1.5818
    Cl(f) = 1.06633
    Cl(r) = 0.515467

Time = 402

smoothSolver:  Solving for Ux, Initial residual = 1.06674e-06, Final residual = 4.37882e-08, No Iterations 4
smoothSolver:  Solving for Uy, Initial residual = 7.97335e-07, Final residual = 3.565e-08, No Iterations 4
GAMG:  Solving for p, Initial residual = 1.7118e-05, Final residual = 9.01391e-07, No Iterations 2
time step continuity errors : sum local = 3.25097e-06, global = 1.41654e-15, cumulative = -8.22711e-15
smoothSolver:  Solving for nuTilda, Initial residual = 5.04847e-06, Final residual = 1.83996e-07, No Iterations 4
ExecutionTime = 4.88 s  ClockTime = 5 s

forces forces write:
    sum of forces:
        pressure : (-9.24826 1265.36 -1.07573e-18)
        viscous  : (0.808078 0.0730806 -3.08142e-21)
        porous   : (0 0 0)
    sum of moments:
        pressure : (632.681 4.62413 220.31)
        viscous  : (0.0365403 -0.404039 0.0342177)
        porous   : (0 0 0)

forceCoeffs forceCoeffs write:
    Cm    = 0.275431
    Cd    = 0.0105502
    Cl    = 1.58179
    Cl(f) = 1.06633
    Cl(r) = 0.515466

Time = 403

smoothSolver:  Solving for Ux, Initial residual = 1.00211e-06, Final residual = 3.94854e-08, No Iterations 4
smoothSolver:  Solving for Uy, Initial residual = 7.56149e-07, Final residual = 3.30965e-08, No Iterations 4
GAMG:  Solving for p, Initial residual = 1.65415e-05, Final residual = 1.60014e-06, No Iterations 1
time step continuity errors : sum local = 5.80248e-06, global = 3.35456e-16, cumulative = -7.89166e-15
smoothSolver:  Solving for nuTilda, Initial residual = 4.93345e-06, Final residual = 1.76282e-07, No Iterations 4
ExecutionTime = 4.89 s  ClockTime = 5 s

forces forces write:
    sum of forces:
        pressure : (-9.24817 1265.36 -1.07573e-18)
        viscous  : (0.808081 0.0730814 -3.08126e-21)
        porous   : (0 0 0)
    sum of moments:
        pressure : (632.681 4.62408 220.31)
        viscous  : (0.0365407 -0.404041 0.0342175)
        porous   : (0 0 0)

forceCoeffs forceCoeffs write:
    Cm    = 0.275431
    Cd    = 0.0105501
    Cl    = 1.58179
    Cl(f) = 1.06633
    Cl(r) = 0.515466

Time = 404

smoothSolver:  Solving for Ux, Initial residual = 9.21889e-07, Final residual = 3.46167e-08, No Iterations 4
smoothSolver:  Solving for Uy, Initial residual = 7.0952e-07, Final residual = 3.10668e-08, No Iterations 4
GAMG:  Solving for p, Initial residual = 1.62355e-05, Final residual = 9.04526e-07, No Iterations 2
time step continuity errors : sum local = 3.3014e-06, global = 5.04526e-16, cumulative = -7.38713e-15
smoothSolver:  Solving for nuTilda, Initial residual = 4.7372e-06, Final residual = 1.6643e-07, No Iterations 4
ExecutionTime = 4.9 s  ClockTime = 5 s

forces forces write:
    sum of forces:
        pressure : (-9.24798 1265.36 -1.07573e-18)
        viscous  : (0.808084 0.0730821 -3.08113e-21)
        porous   : (0 0 0)
    sum of moments:
        pressure : (632.68 4.62399 220.31)
        viscous  : (0.0365411 -0.404042 0.0342173)
        porous   : (0 0 0)

forceCoeffs forceCoeffs write:
    Cm    = 0.275431
    Cd    = 0.0105499
    Cl    = 1.58179
    Cl(f) = 1.06633
    Cl(r) = 0.515465

Time = 405

smoothSolver:  Solving for Ux, Initial residual = 8.68612e-07, Final residual = 3.16324e-08, No Iterations 4
smoothSolver:  Solving for Uy, Initial residual = 6.64083e-07, Final residual = 2.84553e-08, No Iterations 4
GAMG:  Solving for p, Initial residual = 1.54445e-05, Final residual = 8.40164e-07, No Iterations 2
time step continuity errors : sum local = 3.0607e-06, global = 5.84109e-16, cumulative = -6.80302e-15
smoothSolver:  Solving for nuTilda, Initial residual = 4.52431e-06, Final residual = 1.56021e-07, No Iterations 4
ExecutionTime = 4.91 s  ClockTime = 5 s

forces forces write:
    sum of forces:
        pressure : (-9.248 1265.36 -1.07573e-18)
        viscous  : (0.808087 0.0730828 -3.08101e-21)
        porous   : (0 0 0)
    sum of moments:
        pressure : (632.68 4.624 220.31)
        viscous  : (0.0365414 -0.404043 0.0342171)
        porous   : (0 0 0)

forceCoeffs forceCoeffs write:
    Cm    = 0.275431
    Cd    = 0.0105499
    Cl    = 1.58179
    Cl(f) = 1.06633
    Cl(r) = 0.515465

Time = 406

smoothSolver:  Solving for Ux, Initial residual = 8.22008e-07, Final residual = 2.93359e-08, No Iterations 4
smoothSolver:  Solving for Uy, Initial residual = 6.25864e-07, Final residual = 2.64529e-08, No Iterations 4
GAMG:  Solving for p, Initial residual = 1.4833e-05, Final residual = 7.21476e-07, No Iterations 2
time step continuity errors : sum local = 2.62727e-06, global = 1.01524e-16, cumulative = -6.7015e-15
smoothSolver:  Solving for nuTilda, Initial residual = 4.27702e-06, Final residual = 1.44725e-07, No Iterations 4
ExecutionTime = 4.92 s  ClockTime = 5 s

forces forces write:
    sum of forces:
        pressure : (-9.24818 1265.36 -1.07573e-18)
        viscous  : (0.808089 0.0730835 -3.08089e-21)
        porous   : (0 0 0)
    sum of moments:
        pressure : (632.679 4.62409 220.31)
        viscous  : (0.0365417 -0.404045 0.0342169)
        porous   : (0 0 0)

forceCoeffs forceCoeffs write:
    Cm    = 0.275431
    Cd    = 0.0105501
    Cl    = 1.58179
    Cl(f) = 1.06633
    Cl(r) = 0.515464

Time = 407

smoothSolver:  Solving for Ux, Initial residual = 7.68157e-07, Final residual = 2.72807e-08, No Iterations 4
smoothSolver:  Solving for Uy, Initial residual = 5.84641e-07, Final residual = 2.48623e-08, No Iterations 4
GAMG:  Solving for p, Initial residual = 1.42306e-05, Final residual = 1.41357e-06, No Iterations 1
time step continuity errors : sum local = 5.0954e-06, global = 2.25566e-15, cumulative = -4.44583e-15
smoothSolver:  Solving for nuTilda, Initial residual = 4.03101e-06, Final residual = 1.3332e-07, No Iterations 4
ExecutionTime = 4.94 s  ClockTime = 5 s

forces forces write:
    sum of forces:
        pressure : (-9.24834 1265.36 -1.07573e-18)
        viscous  : (0.808091 0.0730842 -3.0808e-21)
        porous   : (0 0 0)
    sum of moments:
        pressure : (632.679 4.62417 220.31)
        viscous  : (0.0365421 -0.404046 0.0342167)
        porous   : (0 0 0)

forceCoeffs forceCoeffs write:
    Cm    = 0.275431
    Cd    = 0.0105503
    Cl    = 1.58179
    Cl(f) = 1.06633
    Cl(r) = 0.515464

Time = 408

smoothSolver:  Solving for Ux, Initial residual = 7.05197e-07, Final residual = 2.49737e-08, No Iterations 4
smoothSolver:  Solving for Uy, Initial residual = 5.45468e-07, Final residual = 2.3274e-08, No Iterations 4
GAMG:  Solving for p, Initial residual = 1.38106e-05, Final residual = 7.63224e-07, No Iterations 2
time step continuity errors : sum local = 2.74891e-06, global = 2.13431e-16, cumulative = -4.2324e-15
smoothSolver:  Solving for nuTilda, Initial residual = 3.72936e-06, Final residual = 1.20984e-07, No Iterations 4
ExecutionTime = 4.95 s  ClockTime = 5 s

forces forces write:
    sum of forces:
        pressure : (-9.24863 1265.36 -1.07573e-18)
        viscous  : (0.808093 0.0730849 -3.0807e-21)
        porous   : (0 0 0)
    sum of moments:
        pressure : (632.679 4.62431 220.31)
        viscous  : (0.0365425 -0.404047 0.0342165)
        porous   : (0 0 0)

forceCoeffs forceCoeffs write:
    Cm    = 0.275431
    Cd    = 0.0105507
    Cl    = 1.58179
    Cl(f) = 1.06632
    Cl(r) = 0.515464

Time = 409

smoothSolver:  Solving for Ux, Initial residual = 6.65186e-07, Final residual = 2.43757e-08, No Iterations 4
smoothSolver:  Solving for Uy, Initial residual = 5.09821e-07, Final residual = 2.22111e-08, No Iterations 4
GAMG:  Solving for p, Initial residual = 1.30298e-05, Final residual = 7.2416e-07, No Iterations 2
time step continuity errors : sum local = 2.59162e-06, global = -3.84808e-17, cumulative = -4.27088e-15
smoothSolver:  Solving for nuTilda, Initial residual = 3.43518e-06, Final residual = 1.08931e-07, No Iterations 4
ExecutionTime = 4.96 s  ClockTime = 5 s

forces forces write:
    sum of forces:
        pressure : (-9.24892 1265.36 -1.07573e-18)
        viscous  : (0.808095 0.0730856 -3.08065e-21)
        porous   : (0 0 0)
    sum of moments:
        pressure : (632.679 4.62446 220.31)
        viscous  : (0.0365428 -0.404048 0.0342163)
        porous   : (0 0 0)

forceCoeffs forceCoeffs write:
    Cm    = 0.275431
    Cd    = 0.010551
    Cl    = 1.58179
    Cl(f) = 1.06632
    Cl(r) = 0.515464

Time = 410

smoothSolver:  Solving for Ux, Initial residual = 6.3532e-07, Final residual = 2.41052e-08, No Iterations 4
smoothSolver:  Solving for Uy, Initial residual = 4.83375e-07, Final residual = 2.14697e-08, No Iterations 4
GAMG:  Solving for p, Initial residual = 1.2312e-05, Final residual = 6.42727e-07, No Iterations 2
time step continuity errors : sum local = 2.31406e-06, global = 9.60135e-16, cumulative = -3.31075e-15
smoothSolver:  Solving for nuTilda, Initial residual = 3.13208e-06, Final residual = 9.67637e-08, No Iterations 4
ExecutionTime = 4.97 s  ClockTime = 5 s

forces forces write:
    sum of forces:
        pressure : (-9.24923 1265.36 -1.07572e-18)
        viscous  : (0.808097 0.0730863 -3.08059e-21)
        porous   : (0 0 0)
    sum of moments:
        pressure : (632.679 4.62462 220.311)
        viscous  : (0.0365431 -0.404048 0.0342162)
        porous   : (0 0 0)

forceCoeffs forceCoeffs write:
    Cm    = 0.275431
    Cd    = 0.0105514
    Cl    = 1.58179
    Cl(f) = 1.06633
    Cl(r) = 0.515464

Time = 411

smoothSolver:  Solving for Ux, Initial residual = 5.98664e-07, Final residual = 2.38782e-08, No Iterations 4
smoothSolver:  Solving for Uy, Initial residual = 4.52203e-07, Final residual = 2.04793e-08, No Iterations 4
GAMG:  Solving for p, Initial residual = 1.16235e-05, Final residual = 5.68297e-07, No Iterations 2
time step continuity errors : sum local = 2.06913e-06, global = -1.13811e-15, cumulative = -4.44886e-15
smoothSolver:  Solving for nuTilda, Initial residual = 2.82869e-06, Final residual = 8.48384e-08, No Iterations 4
ExecutionTime = 4.98 s  ClockTime = 5 s

forces forces write:
    sum of forces:
        pressure : (-9.24958 1265.36 -1.07572e-18)
        viscous  : (0.808099 0.073087 -3.08054e-21)
        porous   : (0 0 0)
    sum of moments:
        pressure : (632.68 4.62479 220.311)
        viscous  : (0.0365435 -0.404049 0.034216)
        porous   : (0 0 0)

forceCoeffs forceCoeffs write:
    Cm    = 0.275431
    Cd    = 0.0105519
    Cl    = 1.58179
    Cl(f) = 1.06633
    Cl(r) = 0.515464

Time = 412

smoothSolver:  Solving for Ux, Initial residual = 5.58555e-07, Final residual = 2.35586e-08, No Iterations 4
smoothSolver:  Solving for Uy, Initial residual = 4.17156e-07, Final residual = 1.92381e-08, No Iterations 4
GAMG:  Solving for p, Initial residual = 1.09203e-05, Final residual = 5.07211e-07, No Iterations 2
time step continuity errors : sum local = 1.83431e-06, global = -1.52406e-15, cumulative = -5.97292e-15
smoothSolver:  Solving for nuTilda, Initial residual = 2.53089e-06, Final residual = 7.35807e-08, No Iterations 4
ExecutionTime = 5 s  ClockTime = 5 s

forces forces write:
    sum of forces:
        pressure : (-9.25019 1265.36 -1.07572e-18)
        viscous  : (0.8081 0.0730876 -3.08053e-21)
        porous   : (0 0 0)
    sum of moments:
        pressure : (632.681 4.62509 220.311)
        viscous  : (0.0365438 -0.40405 0.0342159)
        porous   : (0 0 0)

forceCoeffs forceCoeffs write:
    Cm    = 0.275432
    Cd    = 0.0105526
    Cl    = 1.58179
    Cl(f) = 1.06633
    Cl(r) = 0.515465

Time = 413

smoothSolver:  Solving for Ux, Initial residual = 5.2311e-07, Final residual = 2.366e-08, No Iterations 4
smoothSolver:  Solving for Uy, Initial residual = 3.83922e-07, Final residual = 1.81242e-08, No Iterations 4
GAMG:  Solving for p, Initial residual = 1.01718e-05, Final residual = 4.84876e-07, No Iterations 2
time step continuity errors : sum local = 1.79585e-06, global = 1.35666e-15, cumulative = -4.61626e-15
smoothSolver:  Solving for nuTilda, Initial residual = 2.25017e-06, Final residual = 6.35107e-08, No Iterations 4
ExecutionTime = 5 s  ClockTime = 5 s

forces forces write:
    sum of forces:
        pressure : (-9.25062 1265.36 -1.07571e-18)
        viscous  : (0.808101 0.0730881 -3.08051e-21)
        porous   : (0 0 0)
    sum of moments:
        pressure : (632.682 4.62531 220.312)
        viscous  : (0.036544 -0.404051 0.0342158)
        porous   : (0 0 0)

forceCoeffs forceCoeffs write:
    Cm    = 0.275432
    Cd    = 0.0105531
    Cl    = 1.5818
    Cl(f) = 1.06633
    Cl(r) = 0.515465

Time = 414

smoothSolver:  Solving for Ux, Initial residual = 4.91438e-07, Final residual = 2.40024e-08, No Iterations 4
smoothSolver:  Solving for Uy, Initial residual = 3.56699e-07, Final residual = 1.71117e-08, No Iterations 4
GAMG:  Solving for p, Initial residual = 9.43823e-06, Final residual = 4.66601e-07, No Iterations 2
time step continuity errors : sum local = 1.68705e-06, global = 2.97962e-16, cumulative = -4.3183e-15
smoothSolver:  Solving for nuTilda, Initial residual = 1.98301e-06, Final residual = 5.44214e-08, No Iterations 4
ExecutionTime = 5.02 s  ClockTime = 5 s


SIMPLE solution converged in 414 iterations

forces forces write:
    sum of forces:
        pressure : (-9.25137 1265.37 -1.07572e-18)
        viscous  : (0.808102 0.0730886 -3.08053e-21)
        porous   : (0 0 0)
    sum of moments:
        pressure : (632.683 4.62569 220.312)
        viscous  : (0.0365443 -0.404051 0.0342156)
        porous   : (0 0 0)

forceCoeffs forceCoeffs write:
    Cm    = 0.275433
    Cd    = 0.0105541
    Cl    = 1.5818
    Cl(f) = 1.06633
    Cl(r) = 0.515466

End

